
  EPA STORM WATER MANAGEMENT MODEL - VERSION 5.1 (Build 5.1.012)
  --------------------------------------------------------------

  
  *************
  Element Count
  *************
  Number of rain gages ...... 1
  Number of subcatchments ... 15
  Number of nodes ........... 41
  Number of links ........... 40
  Number of pollutants ...... 0
  Number of land uses ....... 0
  
  
  ****************
  Raingage Summary
  ****************
                                                      Data       Recording
  Name                 Data Source                    Type       Interval 
  ------------------------------------------------------------------------
  Gage1                19Nov09                        VOLUME       5 min.
  
  
  ********************
  Subcatchment Summary
  ********************
  Name                       Area     Width   %Imperv    %Slope Rain Gage            Outlet              
  -----------------------------------------------------------------------------------------------------------
  1                        140.72   2886.00     55.27    3.9900 Gage1                Out1                
  2                         26.48    443.00     57.66    4.6400 Gage1                J1                  
  3                         44.32    637.00     54.64    4.2100 Gage1                J2                  
  4                         20.68      2.00     44.80    7.4900 Gage1                J3                  
  5                         80.44   1884.00     11.37   14.0500 Gage1                J4                  
  6                         16.76      1.00     74.70    4.8500 Gage1                J5                  
  7                         19.44    842.00     58.44    6.5300 Gage1                J6                  
  8                          3.92      1.00     65.73    6.0200 Gage1                J7                  
  9                         35.84    313.00     61.48    3.6600 Gage1                J8                  
  10                        28.92    483.00     57.19    6.8300 Gage1                J9                  
  11                        22.28    212.00     60.17    6.1100 Gage1                J10                 
  12                        22.92    114.00     12.56   13.8000 Gage1                J11                 
  13                        46.28    382.00     34.42   10.8700 Gage1                J12                 
  14                        37.80    736.00      6.26   23.0700 Gage1                J13                 
  15                       142.92   3942.00     22.59   10.2500 Gage1                J14                 
  
  
  ************
  Node Summary
  ************
                                           Invert      Max.    Ponded    External
  Name                 Type                 Elev.     Depth      Area    Inflow  
  -------------------------------------------------------------------------------
  J1                   JUNCTION              6.82      1.00       0.0
  J2                   JUNCTION              7.70      1.50       0.0
  J3                   JUNCTION             26.32      1.50       0.0
  J4                   JUNCTION             10.40      1.50       0.0
  J5                   JUNCTION             12.95      0.50       0.0
  J6                   JUNCTION             12.94      2.00       0.0
  J7                   JUNCTION             16.58      1.00       0.0
  J8                   JUNCTION             15.36      0.50       0.0
  J9                   JUNCTION             16.60      0.50       0.0
  J10                  JUNCTION             16.61      1.00       0.0
  J11                  JUNCTION             15.38      0.50       0.0
  J12                  JUNCTION             16.88      0.50       0.0
  J13                  JUNCTION             20.61      0.50       0.0
  J14                  JUNCTION             13.97      1.50       0.0
  J15                  JUNCTION              9.50      2.00       0.0
  J16                  JUNCTION             12.11      1.00       0.0
  J17                  JUNCTION             47.34      0.50       0.0
  J18                  JUNCTION             24.82      1.50       0.0
  J19                  JUNCTION             19.13      1.50       0.0
  J20                  JUNCTION             41.25      0.50       0.0
  J21                  JUNCTION             31.47      0.50       0.0
  J23                  JUNCTION             35.36      0.50       0.0
  J24                  JUNCTION             75.93      0.50       0.0
  J25                  JUNCTION             32.69      0.50       0.0
  J26                  JUNCTION             26.67      0.50       0.0
  J27                  JUNCTION             30.27      7.63       0.0
  J28                  JUNCTION             29.05      0.50       0.0
  J29                  JUNCTION              6.81      2.00       0.0
  J30                  JUNCTION              7.69      2.00       0.0
  J31                  JUNCTION             10.06      2.00       0.0
  J32                  JUNCTION             10.39      2.00       0.0
  J33                  JUNCTION             15.34      0.50       0.0
  J34                  JUNCTION             15.34      2.00       0.0
  J35                  JUNCTION             16.59      1.00       0.0
  J38                  JUNCTION             11.44      2.00       0.0
  J39                  JUNCTION             11.06      1.50       0.0
  J40                  JUNCTION             20.27      0.50       0.0
  J41                  JUNCTION             32.40      0.50       0.0
  J42                  JUNCTION             22.94      0.50       0.0
  J43                  JUNCTION             38.00      0.50       0.0
  Out1                 OUTFALL               5.89      2.00       0.0
  
  
  ************
  Link Summary
  ************
  Name             From Node        To Node          Type            Length    %Slope Roughness
  ---------------------------------------------------------------------------------------------
  C1               J29              Out1             CONDUIT          260.0    0.3546    0.0130
  C2               J1               J29              CONDUIT            1.0    1.0001    0.0130
  C3               J30              J29              CONDUIT          210.0    0.4191    0.0130
  C4               J2               J30              CONDUIT            1.0    0.5000    0.0130
  C5               J15              J30              CONDUIT          610.0    0.2967    0.0130
  C6               J31              J15              CONDUIT          183.0    0.3060    0.0130
  C7               J32              J31              CONDUIT          108.0    0.3056    0.0130
  C8               J3               J31              CONDUIT          600.0    2.7110    0.0130
  C9               J4               J32              CONDUIT            1.0    1.0001    0.0130
  C11              J5               J6               CONDUIT            1.0    0.5000    0.0130
  C12              J33              J5               CONDUIT          420.0    0.5702    0.0130
  C13              J7               J33              CONDUIT          150.0    0.8267    0.0130
  C14              J8               J33              CONDUIT            1.0    2.0004    0.0130
  C16              J9               J7               CONDUIT            1.0    2.0004    0.0130
  C17              J13              J12              CONDUIT          175.0    2.1319    0.0300
  C18              J11              J34              CONDUIT            1.0    3.5021    0.0300
  C19              J12              J34              CONDUIT          133.0    1.1580    0.0130
  C20              J34              J6               CONDUIT          460.0    0.5217    0.0130
  C22              J35              J16              CONDUIT          180.0    2.4897    0.0300
  C23              J16              J1               CONDUIT          469.0    1.1280    0.0130
  C25              J18              J14              CONDUIT          682.0    1.5911    0.0130
  C26              J19              J4               CONDUIT          690.0    1.2653    0.0130
  C28              J21              J11              CONDUIT          429.0    3.7544    0.0300
  C30              J23              J13              CONDUIT          660.0    2.2354    0.0300
  C31              J24              J23              CONDUIT          230.0   17.9201    0.0300
  C33              J26              J9               CONDUIT          610.0    1.6510    0.0130
  C35              J28              J8               CONDUIT          640.0    2.1396    0.0130
  C10              J38              J32              CONDUIT          340.0    0.3088    0.0130
  C38              J6               J38              CONDUIT          300.0    0.5000    0.0130
  C21              J39              J2               CONDUIT          529.0    0.6361    0.0130
  C39              J14              J39              CONDUIT          330.0    0.8819    0.0130
  C24              J40              J14              CONDUIT          330.0    1.9094    0.0130
  C41              J17              J40              CONDUIT          680.0    3.9840    0.0300
  C27              J41              J19              CONDUIT          820.0    1.6185    0.0130
  C42              J20              J41              CONDUIT          400.0    2.2130    0.0300
  C32              J42              J12              CONDUIT          600.0    1.0101    0.0130
  C43              J25              J42              CONDUIT          400.0    2.4382    0.0130
  C34              J27              J10              CONDUIT          560.0    3.6265    0.0130
  C15              J10              J7               CONDUIT            1.0    2.5008    0.0130
  C45              J43              J18              CONDUIT          800.0    1.6477    0.0130
  
  
  *********************
  Cross Section Summary
  *********************
                                        Full     Full     Hyd.     Max.   No. of     Full
  Conduit          Shape               Depth     Area     Rad.    Width  Barrels     Flow
  ---------------------------------------------------------------------------------------
  C1               TRAPEZOIDAL          2.00    16.00     1.37    10.00        1    90.54
  C2               RECT_OPEN            1.00     2.00     0.50     2.00        1     9.69
  C3               TRAPEZOIDAL          2.00    13.00     1.28     8.50        1    76.32
  C4               RECT_OPEN            1.50     5.25     0.81     3.50        1    24.77
  C5               TRAPEZOIDAL          2.00    11.00     1.20     7.50        1    52.09
  C6               RECT_OPEN            2.00    15.00     1.30     7.50        1    76.21
  C7               RECT_OPEN            2.00    15.00     1.30     7.50        1    76.15
  C8               RECT_OPEN            1.50     3.00     0.60     2.00        1    27.03
  C9               RECT_OPEN            1.50     3.00     0.60     2.00        1    16.42
  C11              RECT_OPEN            0.50     1.35     0.36     2.70        1     3.75
  C12              RECT_OPEN            0.50     1.35     0.36     2.70        1     4.00
  C13              RECT_OPEN            0.50     1.35     0.36     2.70        1     4.82
  C14              RECT_OPEN            0.50     0.25     0.17     0.50        1     0.82
  C16              RECT_OPEN            0.50     0.75     0.30     1.50        1     3.66
  C17              RECT_OPEN            0.50     1.00     0.33     2.00        1     2.34
  C18              TRAPEZOIDAL          0.50     0.50     0.26     1.50        1     1.27
  C19              TRIANGULAR           0.50     0.50     0.22     2.00        1     1.53
  C20              RECT_OPEN            2.00     8.40     1.02     4.20        1    47.44
  C22              TRIANGULAR           1.00     0.66     0.28     1.33        1     1.49
  C23              RECT_OPEN            1.00     2.00     0.50     2.00        1    10.30
  C25              RECT_OPEN            1.50     2.25     0.50     1.50        1    13.76
  C26              RECT_OPEN            1.50     3.00     0.60     2.00        1    18.47
  C28              TRAPEZOIDAL          0.50     0.50     0.26     1.50        1     1.32
  C30              RECT_OPEN            0.50     1.00     0.33     2.00        1     2.40
  C31              TRIANGULAR           0.50     0.17     0.14     0.66        1     0.62
  C33              RECT_OPEN            0.50     0.75     0.30     1.50        1     3.32
  C35              RECT_OPEN            0.50     0.25     0.17     0.50        1     0.85
  C10              RECT_OPEN            2.00    15.00     1.30     7.50        1    76.56
  C38              RECT_OPEN            2.00     9.60     1.09     4.80        1    55.35
  C21              RECT_OPEN            1.50     5.25     0.81     3.50        1    27.94
  C39              RECT_OPEN            0.50     0.75     0.30     1.50        1     2.43
  C24              TRIANGULAR           0.50     0.50     0.22     2.00        1     1.96
  C41              TRIANGULAR           0.50     0.17     0.14     0.66        1     0.29
  C27              TRIANGULAR           0.50     0.50     0.22     2.00        1     1.80
  C42              TRIANGULAR           0.50     0.17     0.14     0.66        1     0.22
  C32              TRIANGULAR           0.50     0.50     0.22     2.00        1     1.42
  C43              TRIANGULAR           0.50     0.50     0.22     2.00        1     2.21
  C34              RECT_OPEN            1.00     0.50     0.20     0.50        1     2.51
  C15              RECT_OPEN            1.00     0.50     0.20     0.50        1     2.08
  C45              RECT_OPEN            0.50     1.25     0.36     2.50        1     6.21
  
  
  
  *********************************************************
  NOTE: The summary statistics displayed in this report are
  based on results found at every computational time step,  
  not just on results from each reporting time step.
  *********************************************************
  
  ****************
  Analysis Options
  ****************
  Flow Units ............... CMS
  Process Models:
    Rainfall/Runoff ........ YES
    RDII ................... NO
    Snowmelt ............... NO
    Groundwater ............ NO
    Flow Routing ........... YES
    Ponding Allowed ........ NO
    Water Quality .......... NO
  Infiltration Method ...... CURVE_NUMBER
  Flow Routing Method ...... DYNWAVE
  Starting Date ............ 11/19/2009 00:05:00
  Ending Date .............. 11/19/2009 23:55:00
  Antecedent Dry Days ...... 0.0
  Report Time Step ......... 00:05:00
  Wet Time Step ............ 00:05:00
  Dry Time Step ............ 00:05:00
  Routing Time Step ........ 60.00 sec
  Variable Time Step ....... YES
  Maximum Trials ........... 8
  Number of Threads ........ 1
  Head Tolerance ........... 0.001524 m
  
  
  **************************        Volume         Depth
  Runoff Quantity Continuity     hectare-m            mm
  **************************     ---------       -------
  Total Precipitation ......        77.426       112.258
  Evaporation Loss .........         0.000         0.000
  Infiltration Loss ........        18.363        26.624
  Surface Runoff ...........        56.484        81.894
  Final Storage ............         2.803         4.064
  Continuity Error (%) .....        -0.289
  
  
  **************************        Volume        Volume
  Flow Routing Continuity        hectare-m      10^6 ltr
  **************************     ---------     ---------
  Dry Weather Inflow .......         0.000         0.000
  Wet Weather Inflow .......        56.452       564.521
  Groundwater Inflow .......         0.000         0.000
  RDII Inflow ..............         0.000         0.000
  External Inflow ..........         0.000         0.000
  External Outflow .........        39.230       392.300
  Flooding Loss ............        18.350       183.501
  Evaporation Loss .........         0.000         0.000
  Exfiltration Loss ........         0.000         0.000
  Initial Stored Volume ....         0.000         0.001
  Final Stored Volume ......         0.180         1.802
  Continuity Error (%) .....        -2.317
  
  
  *************************
  Highest Continuity Errors
  *************************
  Node J30 (-5.37%)
  Node J2 (3.69%)
  Node J32 (-2.05%)
  
  
  ***************************
  Time-Step Critical Elements
  ***************************
  Link C18 (51.59%)
  Link C14 (33.77%)
  Link C15 (13.18%)
  
  
  ********************************
  Highest Flow Instability Indexes
  ********************************
  Link C15 (7)
  Link C2 (2)
  Link C16 (2)
  Link C13 (1)
  Link C1 (1)
  
  
  *************************
  Routing Time Step Summary
  *************************
  Minimum Time Step           :     0.29 sec
  Average Time Step           :     1.11 sec
  Maximum Time Step           :    60.00 sec
  Percent in Steady State     :     0.00
  Average Iterations per Step :     2.00
  Percent Not Converging      :     0.00
  
  
  ***************************
  Subcatchment Runoff Summary
  ***************************
  
  --------------------------------------------------------------------------------------------------------
                            Total      Total      Total      Total      Total       Total     Peak  Runoff
                           Precip      Runon       Evap      Infil     Runoff      Runoff   Runoff   Coeff
  Subcatchment                 mm         mm         mm         mm         mm    10^6 ltr      CMS
  --------------------------------------------------------------------------------------------------------
  1                        112.26       0.00       0.00      16.86      95.65      134.60    42.37   0.852
  2                        112.26       0.00       0.00      13.08      99.39       26.32     8.28   0.885
  3                        112.26       0.00       0.00      14.91      97.61       43.26    13.64   0.869
  4                        112.26       0.00       0.00      20.22      50.76       10.50     0.81   0.452
  5                        112.26       0.00       0.00      43.26      66.45       53.45     7.51   0.592
  6                        112.26       0.00       0.00       9.62      57.53        9.64     0.42   0.512
  7                        112.26       0.00       0.00      15.44      97.32       18.92     6.52   0.867
  8                        112.26       0.00       0.00      13.37      82.40        3.23     0.32   0.734
  9                        112.26       0.00       0.00      15.02      97.18       34.83    10.29   0.866
  10                       112.26       0.00       0.00      17.15      95.20       27.53     8.54   0.848
  11                       112.26       0.00       0.00      15.53      96.81       21.57     6.64   0.862
  12                       112.26       0.00       0.00      44.29      54.49       12.49     1.46   0.485
  13                       112.26       0.00       0.00      29.17      80.09       37.07     7.95   0.713
  14                       112.26       0.00       0.00      43.61      65.87       24.90     3.42   0.587
  15                       112.26       0.00       0.00      36.23      74.54      106.54    18.59   0.664
  
  
  ******************
  Node Depth Summary
  ******************
  
  ---------------------------------------------------------------------------------
                                 Average  Maximum  Maximum  Time of Max    Reported
                                   Depth    Depth      HGL   Occurrence   Max Depth
  Node                 Type       Meters   Meters   Meters  days hr:min      Meters
  ---------------------------------------------------------------------------------
  J1                   JUNCTION     0.36     1.00     7.82     0  13:25        1.00
  J2                   JUNCTION     0.41     1.50     9.20     0  13:11        1.16
  J3                   JUNCTION     0.06     0.13    26.45     0  14:10        0.13
  J4                   JUNCTION     0.26     1.50    11.90     0  13:11        0.81
  J5                   JUNCTION     0.22     0.50    13.45     0  13:18        0.50
  J6                   JUNCTION     0.22     0.51    13.45     0  13:19        0.51
  J7                   JUNCTION     0.13     0.55    17.13     0  13:46        0.52
  J8                   JUNCTION     0.19     0.50    15.86     0  13:15        0.50
  J9                   JUNCTION     0.11     0.50    17.10     0  13:18        0.50
  J10                  JUNCTION     0.19     1.00    17.61     0  13:19        1.00
  J11                  JUNCTION     0.22     0.50    15.88     0  13:24        0.50
  J12                  JUNCTION     0.38     0.50    17.38     0  13:15        0.50
  J13                  JUNCTION     0.17     0.50    21.11     0  13:39        0.50
  J14                  JUNCTION     0.57     1.50    15.47     0  13:17        1.50
  J15                  JUNCTION     0.41     1.01    10.51     0  13:54        1.01
  J16                  JUNCTION     0.00     0.00    12.11     0  00:00        0.00
  J17                  JUNCTION     0.00     0.00    47.34     0  00:00        0.00
  J18                  JUNCTION     0.00     0.00    24.82     0  00:00        0.00
  J19                  JUNCTION     0.00     0.00    19.13     0  00:00        0.00
  J20                  JUNCTION     0.00     0.00    41.25     0  00:00        0.00
  J21                  JUNCTION     0.00     0.00    31.47     0  00:00        0.00
  J23                  JUNCTION     0.00     0.00    35.36     0  00:00        0.00
  J24                  JUNCTION     0.00     0.00    75.93     0  00:00        0.00
  J25                  JUNCTION     0.00     0.00    32.69     0  00:00        0.00
  J26                  JUNCTION     0.00     0.00    26.67     0  00:00        0.00
  J27                  JUNCTION     0.00     0.00    30.27     0  00:00        0.00
  J28                  JUNCTION     0.00     0.00    29.05     0  00:00        0.00
  J29                  JUNCTION     0.37     1.02     7.83     0  13:26        1.01
  J30                  JUNCTION     0.41     1.16     8.85     0  13:35        1.16
  J31                  JUNCTION     0.27     0.72    10.78     0  13:52        0.72
  J32                  JUNCTION     0.25     0.69    11.08     0  13:51        0.68
  J33                  JUNCTION     0.16     0.50    15.84     0  13:17        0.50
  J34                  JUNCTION     0.14     0.28    15.62     0  13:36        0.28
  J35                  JUNCTION     0.00     0.00    16.59     0  00:00        0.00
  J38                  JUNCTION     0.19     0.43    11.87     0  13:22        0.43
  J39                  JUNCTION     0.16     0.30    11.36     0  14:06        0.30
  J40                  JUNCTION     0.00     0.00    20.27     0  00:00        0.00
  J41                  JUNCTION     0.00     0.00    32.40     0  00:00        0.00
  J42                  JUNCTION     0.00     0.00    22.94     0  00:00        0.00
  J43                  JUNCTION     0.00     0.00    38.00     0  00:00        0.00
  Out1                 OUTFALL      0.37     1.01     6.90     0  13:29        1.01
  
  
  *******************
  Node Inflow Summary
  *******************
  
  -------------------------------------------------------------------------------------------------
                                  Maximum  Maximum                  Lateral       Total        Flow
                                  Lateral    Total  Time of Max      Inflow      Inflow     Balance
                                   Inflow   Inflow   Occurrence      Volume      Volume       Error
  Node                 Type           CMS      CMS  days hr:min    10^6 ltr    10^6 ltr     Percent
  -------------------------------------------------------------------------------------------------
  J1                   JUNCTION     8.279    9.333     0  13:34        26.3        31.1       0.075
  J2                   JUNCTION    13.645  397.081     0  13:11        43.2         104       3.828
  J3                   JUNCTION     0.814    0.814     0  14:10        10.5        10.5       0.183
  J4                   JUNCTION     7.514   79.624     0  13:11        53.4        56.3       0.235
  J5                   JUNCTION     0.422    5.931     0  13:30        9.62        47.8       0.088
  J6                   JUNCTION     6.524    9.065     0  13:30        18.9        91.8       0.145
  J7                   JUNCTION     0.321    6.887     0  13:46        3.23        33.3      -0.737
  J8                   JUNCTION    10.285   10.285     0  13:35        34.8        34.8       0.009
  J9                   JUNCTION     8.541    9.501     0  13:27        27.5        28.6       0.012
  J10                  JUNCTION     6.642    6.642     0  13:30        21.6        21.6       0.042
  J11                  JUNCTION     1.464    1.464     0  13:25        12.5        12.5       0.114
  J12                  JUNCTION     7.952    9.566     0  13:30          37          60       0.101
  J13                  JUNCTION     3.417    3.417     0  14:05        24.9        24.9       0.135
  J14                  JUNCTION    18.591   18.591     0  13:50         106         106       0.048
  J15                  JUNCTION     0.000   15.348     0  13:53           0         155       0.179
  J16                  JUNCTION     0.000    0.000     0  00:00           0           0       0.000 ltr
  J17                  JUNCTION     0.000    0.000     0  00:00           0           0       0.000 ltr
  J18                  JUNCTION     0.000    0.000     0  00:00           0           0       0.000 ltr
  J19                  JUNCTION     0.000    0.000     0  00:00           0           0       0.000 ltr
  J20                  JUNCTION     0.000    0.000     0  00:00           0           0       0.000 ltr
  J21                  JUNCTION     0.000    0.000     0  00:00           0           0       0.000 ltr
  J23                  JUNCTION     0.000    0.000     0  00:00           0           0       0.000 ltr
  J24                  JUNCTION     0.000    0.000     0  00:00           0           0       0.000 ltr
  J25                  JUNCTION     0.000    0.000     0  00:00           0           0       0.000 ltr
  J26                  JUNCTION     0.000    0.000     0  00:00           0           0       0.000 ltr
  J27                  JUNCTION     0.000    0.000     0  00:00           0           0       0.000 ltr
  J28                  JUNCTION     0.000    0.000     0  00:00           0           0       0.000 ltr
  J29                  JUNCTION     0.000   29.162     0  13:35           0         263       0.075
  J30                  JUNCTION     0.000  249.324     0  13:11           0         247      -5.098
  J31                  JUNCTION     0.000   15.344     0  13:51           0         155       0.085
  J32                  JUNCTION     0.000   52.280     0  13:11           0         145      -2.009
  J33                  JUNCTION     0.000    5.698     0  13:40           0          43       0.045
  J34                  JUNCTION     0.000    2.544     0  13:36           0        38.1       0.150
  J35                  JUNCTION     0.000    0.000     0  00:00           0           0       0.000 ltr
  J38                  JUNCTION     0.000    7.298     0  13:25           0        90.2       0.146
  J39                  JUNCTION     0.000    2.579     0  14:06           0        46.1       0.105
  J40                  JUNCTION     0.000    0.000     0  00:00           0           0       0.000 ltr
  J41                  JUNCTION     0.000    0.000     0  00:00           0           0       0.000 ltr
  J42                  JUNCTION     0.000    0.000     0  00:00           0           0       0.000 ltr
  J43                  JUNCTION     0.000    0.000     0  00:00           0           0       0.000 ltr
  Out1                 OUTFALL     42.367   70.299     0  13:30         135         392       0.000
  
  
  **********************
  Node Surcharge Summary
  **********************
  
  Surcharging occurs when water rises above the top of the highest conduit.
  ---------------------------------------------------------------------
                                               Max. Height   Min. Depth
                                   Hours       Above Crown    Below Rim
  Node                 Type      Surcharged         Meters       Meters
  ---------------------------------------------------------------------
  J1                   JUNCTION        0.71          0.000        0.000
  J2                   JUNCTION        0.02          0.000        0.000
  J4                   JUNCTION        0.02          0.000        0.000
  J5                   JUNCTION        1.20          0.000        0.000
  J8                   JUNCTION        1.63          0.000        0.000
  J9                   JUNCTION        0.94          0.000        0.000
  J10                  JUNCTION        0.70          0.000        0.000
  J11                  JUNCTION        0.19          0.000        0.000
  J12                  JUNCTION        4.05          0.000        0.000
  J13                  JUNCTION        0.79          0.000        0.000
  J14                  JUNCTION        2.54          0.000        0.000
  J33                  JUNCTION        1.13          0.000        0.000
  
  
  *********************
  Node Flooding Summary
  *********************
  
  Flooding refers to all water that overflows a node, whether it ponds or not.
  --------------------------------------------------------------------------
                                                             Total   Maximum
                                 Maximum   Time of Max       Flood    Ponded
                        Hours       Rate    Occurrence      Volume     Depth
  Node                 Flooded       CMS   days hr:min    10^6 ltr    Meters
  --------------------------------------------------------------------------
  J1                      0.71     9.333      0  13:34      14.238     0.000
  J2                      0.02   198.540      0  13:11      12.889     0.000
  J4                      0.02    39.812      0  13:11       2.388     0.000
  J5                      1.20     5.931      0  13:30      12.901     0.000
  J8                      1.63     9.461      0  13:35      24.255     0.000
  J9                      0.94     9.499      0  13:27      18.501     0.000
  J10                     0.69     1.817      0  13:44       1.644     0.000
  J11                     0.19     0.189      0  13:25       0.089     0.000
  J12                     4.05     8.297      0  13:30      34.202     0.000
  J13                     0.79     1.077      0  14:05       1.916     0.000
  J14                     2.54    16.010      0  13:50      60.285     0.000
  J33                     1.13     1.694      0  13:40       6.238     0.000
  
  
  ***********************
  Outfall Loading Summary
  ***********************
  
  -----------------------------------------------------------
                         Flow       Avg       Max       Total
                         Freq      Flow      Flow      Volume
  Outfall Node           Pcnt       CMS       CMS    10^6 ltr
  -----------------------------------------------------------
  Out1                  98.98    10.235    70.299     392.299
  -----------------------------------------------------------
  System                98.98    10.235    70.299     392.299
  
  
  ********************
  Link Flow Summary
  ********************
  
  -----------------------------------------------------------------------------
                                 Maximum  Time of Max   Maximum    Max/    Max/
                                  |Flow|   Occurrence   |Veloc|    Full    Full
  Link                 Type          CMS  days hr:min     m/sec    Flow   Depth
  -----------------------------------------------------------------------------
  C1                   CONDUIT    27.945     0  13:29      3.95    0.31    0.51
  C2                   CONDUIT     6.796     0  13:25      9.53    0.70    1.00
  C3                   CONDUIT    29.162     0  13:35      5.39    0.38    0.54
  C4                   CONDUIT   397.073     0  13:11    >50.00   16.03    0.77
  C5                   CONDUIT    15.354     0  13:54      3.31    0.29    0.53
  C6                   CONDUIT    15.348     0  13:53      2.36    0.20    0.43
  C7                   CONDUIT    14.642     0  13:51      5.01    0.19    0.35
  C8                   CONDUIT     0.813     0  14:10      1.03    0.03    0.28
  C9                   CONDUIT    79.621     0  13:11    >50.00    4.85    0.50
  C11                  CONDUIT     3.750     0  14:14      2.93    1.00    1.00
  C12                  CONDUIT     4.005     0  13:31      3.01    1.00    1.00
  C13                  CONDUIT     4.875     0  13:40      3.61    1.01    1.00
  C14                  CONDUIT     0.824     0  13:15      4.78    1.00    1.00
  C16                  CONDUIT     3.010     0  13:18      4.01    0.82    1.00
  C17                  CONDUIT     2.340     0  13:42      2.34    1.00    1.00
  C18                  CONDUIT     1.275     0  13:24      3.79    1.00    0.78
  C19                  CONDUIT     1.269     0  13:36      5.66    0.83    0.78
  C20                  CONDUIT     2.544     0  13:36      1.55    0.05    0.20
  C22                  CONDUIT     0.000     0  00:00      0.00    0.00    0.00
  C23                  CONDUIT     0.000     0  00:00      0.00    0.00    0.50
  C25                  CONDUIT     0.000     0  00:00      0.00    0.00    0.50
  C26                  CONDUIT     0.000     0  00:00      0.00    0.00    0.49
  C28                  CONDUIT     0.000     0  00:00      0.00    0.00    0.50
  C30                  CONDUIT     0.000     0  00:00      0.00    0.00    0.50
  C31                  CONDUIT     0.000     0  00:00      0.00    0.00    0.00
  C33                  CONDUIT     0.000     0  00:00      0.00    0.00    0.50
  C35                  CONDUIT     0.000     0  00:00      0.00    0.00    0.50
  C10                  CONDUIT     7.324     0  13:22      2.03    0.10    0.28
  C38                  CONDUIT     7.298     0  13:25      3.48    0.13    0.23
  C21                  CONDUIT     2.579     0  14:06      1.74    0.09    0.50
  C39                  CONDUIT     2.579     0  14:06      4.41    1.06    0.80
  C24                  CONDUIT     0.000     0  00:00      0.00    0.00    0.50
  C41                  CONDUIT     0.000     0  00:00      0.00    0.00    0.00
  C27                  CONDUIT     0.000     0  00:00      0.00    0.00    0.00
  C42                  CONDUIT     0.000     0  00:00      0.00    0.00    0.00
  C32                  CONDUIT     0.000     0  00:00      0.00    0.00    0.50
  C43                  CONDUIT     0.000     0  00:00      0.00    0.00    0.00
  C34                  CONDUIT     0.000     0  00:00      0.00    0.00    0.50
  C15                  CONDUIT     6.437     0  13:28     16.95    3.09    0.78
  C45                  CONDUIT     0.000     0  00:00      0.00    0.00    0.00
  
  
  ***************************
  Flow Classification Summary
  ***************************
  
  -------------------------------------------------------------------------------------
                      Adjusted    ---------- Fraction of Time in Flow Class ---------- 
                       /Actual         Up    Down  Sub   Sup   Up    Down  Norm  Inlet 
  Conduit               Length    Dry  Dry   Dry   Crit  Crit  Crit  Crit  Ltd   Ctrl  
  -------------------------------------------------------------------------------------
  C1                      1.00   0.01  0.00  0.00  0.01  0.98  0.00  0.00  0.14  0.00
  C2                      1.00   0.01  0.00  0.00  0.97  0.02  0.00  0.00  0.00  0.00
  C3                      1.00   0.01  0.00  0.00  0.00  0.99  0.00  0.00  0.19  0.00
  C4                      1.00   0.01  0.00  0.00  0.93  0.06  0.00  0.00  0.01  0.00
  C5                      1.00   0.01  0.00  0.00  0.05  0.94  0.00  0.00  0.16  0.00
  C6                      1.00   0.01  0.00  0.00  0.98  0.01  0.00  0.00  0.39  0.00
  C7                      1.00   0.01  0.00  0.00  0.60  0.39  0.00  0.00  0.25  0.00
  C8                      1.00   0.01  0.00  0.00  0.99  0.00  0.00  0.00  0.45  0.00
  C9                      1.00   0.01  0.00  0.00  0.51  0.48  0.00  0.00  0.06  0.00
  C11                     1.00   0.01  0.00  0.00  0.76  0.23  0.00  0.00  0.04  0.00
  C12                     1.00   0.01  0.00  0.00  0.72  0.27  0.00  0.00  0.40  0.00
  C13                     1.00   0.01  0.00  0.00  0.58  0.41  0.00  0.00  0.40  0.00
  C14                     1.00   0.01  0.00  0.00  0.00  0.99  0.00  0.00  0.23  0.00
  C16                     1.00   0.01  0.00  0.00  0.50  0.49  0.00  0.00  0.09  0.00
  C17                     1.00   0.01  0.00  0.00  0.90  0.09  0.00  0.00  0.41  0.00
  C18                     1.00   0.01  0.00  0.00  0.00  0.99  0.00  0.00  0.45  0.00
  C19                     1.00   0.01  0.00  0.00  0.00  0.99  0.00  0.00  0.00  0.00
  C20                     1.00   0.01  0.00  0.00  0.99  0.00  0.00  0.00  0.45  0.00
  C22                     1.00   1.00  0.00  0.00  0.00  0.00  0.00  0.00  0.00  0.00
  C23                     1.00   0.01  0.99  0.00  0.00  0.00  0.00  0.00  0.00  0.00
  C25                     1.00   0.01  0.99  0.00  0.00  0.00  0.00  0.00  0.00  0.00
  C26                     1.00   0.01  0.99  0.00  0.00  0.00  0.00  0.00  0.00  0.00
  C28                     1.00   0.01  0.99  0.00  0.00  0.00  0.00  0.00  0.00  0.00
  C30                     1.00   0.01  0.99  0.00  0.00  0.00  0.00  0.00  0.00  0.00
  C31                     1.00   1.00  0.00  0.00  0.00  0.00  0.00  0.00  0.00  0.00
  C33                     1.00   0.01  0.99  0.00  0.00  0.00  0.00  0.00  0.00  0.00
  C35                     1.00   0.01  0.99  0.00  0.00  0.00  0.00  0.00  0.00  0.00
  C10                     1.00   0.01  0.00  0.00  0.99  0.00  0.00  0.00  0.44  0.00
  C38                     1.00   0.01  0.00  0.00  0.00  0.99  0.00  0.00  0.00  0.00
  C21                     1.00   0.01  0.00  0.00  0.99  0.00  0.00  0.00  0.45  0.00
  C39                     1.00   0.01  0.00  0.00  0.00  0.99  0.00  0.00  0.00  0.00
  C24                     1.00   0.01  0.99  0.00  0.00  0.00  0.00  0.00  0.00  0.00
  C41                     1.00   1.00  0.00  0.00  0.00  0.00  0.00  0.00  0.00  0.00
  C27                     1.00   1.00  0.00  0.00  0.00  0.00  0.00  0.00  0.00  0.00
  C42                     1.00   1.00  0.00  0.00  0.00  0.00  0.00  0.00  0.00  0.00
  C32                     1.00   0.01  0.99  0.00  0.00  0.00  0.00  0.00  0.00  0.00
  C43                     1.00   1.00  0.00  0.00  0.00  0.00  0.00  0.00  0.00  0.00
  C34                     1.00   0.01  0.99  0.00  0.00  0.00  0.00  0.00  0.00  0.00
  C15                     1.00   0.01  0.00  0.00  0.00  0.99  0.00  0.00  0.21  0.00
  C45                     1.00   1.00  0.00  0.00  0.00  0.00  0.00  0.00  0.00  0.00
  
  
  *************************
  Conduit Surcharge Summary
  *************************
  
  ----------------------------------------------------------------------------
                                                           Hours        Hours 
                         --------- Hours Full --------   Above Full   Capacity
  Conduit                Both Ends  Upstream  Dnstream   Normal Flow   Limited
  ----------------------------------------------------------------------------
  C2                          0.71      0.71      0.73      0.01         0.01
  C4                          0.01      0.01      0.01      0.02         0.01
  C9                          0.01      0.01      0.01      0.02         0.01
  C11                         0.01      0.01      0.92      0.01         0.01
  C13                         0.01      0.94      0.01      0.86         0.01
  C16                         0.01      0.01      0.94      0.01         0.01
  C21                         0.01      0.01      0.01      0.01         0.01
  C39                         0.01      3.69      0.01      2.99         0.01
  C15                         0.01      0.59      0.01      0.87         0.01
  

  Analysis begun on:  Wed Jan 02 04:58:14 2019
  Analysis ended on:  Wed Jan 02 04:58:17 2019
  Total elapsed time: 00:00:03