
  EPA STORM WATER MANAGEMENT MODEL - VERSION 5.1 (Build 5.1.012)
  --------------------------------------------------------------

  WARNING 04: minimum elevation drop used for Conduit LKSerene_ovfl1
  
  *********************************************************
  NOTE: The summary statistics displayed in this report are
  based on results found at every computational time step,  
  not just on results from each reporting time step.
  *********************************************************
  
  ****************
  Analysis Options
  ****************
  Flow Units ............... CFS
  Process Models:
    Rainfall/Runoff ........ YES
    RDII ................... NO
    Snowmelt ............... NO
    Groundwater ............ NO
    Flow Routing ........... YES
    Ponding Allowed ........ YES
    Water Quality .......... NO
  Infiltration Method ...... HORTON
  Flow Routing Method ...... DYNWAVE
  Starting Date ............ 08/01/2002 00:00:00
  Ending Date .............. 10/01/2002 09:00:00
  Antecedent Dry Days ...... 0.0
  Report Time Step ......... 00:01:00
  Wet Time Step ............ 00:01:00
  Dry Time Step ............ 01:00:00
  Routing Time Step ........ 10.00 sec
  Variable Time Step ....... YES
  Maximum Trials ........... 8
  Number of Threads ........ 1
  Head Tolerance ........... 0.005000 ft
  
  
  **************************        Volume         Depth
  Runoff Quantity Continuity     acre-feet        inches
  **************************     ---------       -------
  Total Precipitation ......      4727.777        10.600
  Evaporation Loss .........      1832.263         4.108
  Infiltration Loss ........       971.910         2.179
  Surface Runoff ...........      1923.608         4.313
  Final Storage ............         0.000         0.000
  Continuity Error (%) .....        -0.000
  
  
  **************************        Volume        Volume
  Flow Routing Continuity        acre-feet      10^6 gal
  **************************     ---------     ---------
  Dry Weather Inflow .......         0.000         0.000
  Wet Weather Inflow .......      1923.527       626.810
  Groundwater Inflow .......         0.000         0.000
  RDII Inflow ..............         0.000         0.000
  External Inflow ..........         0.000         0.000
  External Outflow .........     15964.747      5202.351
  Flooding Loss ............    344938.834    112403.472
  Evaporation Loss .........      2073.968       675.834
  Exfiltration Loss ........         0.000         0.000
  Initial Stored Volume ....       188.136        61.307
  Final Stored Volume ......       844.324       275.135
  Continuity Error (%) .....    -17129.170
  
  
  *************************
  Highest Continuity Errors
  *************************
  Node 0200 (-92.41%)
  Node 1300 (-35.30%)
  Node 1350 (-24.02%)
  Node 0150 (-14.12%)
  Node 7999 (12.24%)
  
  
  ***************************
  Time-Step Critical Elements
  ***************************
  Node 0150 (50.76%)
  Link CULV-1350A (16.52%)
  Node 1300 (14.51%)
  Node 1500 (9.22%)
  
  
  ********************************
  Highest Flow Instability Indexes
  ********************************
  Link Weir1500b (124)
  Link Weir1500a (124)
  Link Weir0150a (106)
  Link Weir1300a (104)
  Link CULV-1350A (101)
  
  
  *************************
  Routing Time Step Summary
  *************************
  Minimum Time Step           :     0.50 sec
  Average Time Step           :     3.84 sec
  Maximum Time Step           :    10.00 sec
  Percent in Steady State     :     0.00
  Average Iterations per Step :     7.99
  Percent Not Converging      :    99.81
  
  
  ***************************
  Subcatchment Runoff Summary
  ***************************
  
  --------------------------------------------------------------------------------------------------------
                            Total      Total      Total      Total      Total       Total     Peak  Runoff
                           Precip      Runon       Evap      Infil     Runoff      Runoff   Runoff   Coeff
  Subcatchment                 in         in         in         in         in    10^6 gal      CFS
  --------------------------------------------------------------------------------------------------------
  BSL0100                   10.60       0.00       3.94       1.02       5.64       58.80   311.40   0.532
  BSL0200                   10.60       0.00       4.64       3.13       2.83       84.60   482.08   0.267
  BSL0300                   10.60       0.00       3.57       0.08       6.95       24.40   171.79   0.656
  BSL0400                   10.60       0.00       4.07       2.56       3.97       22.34   123.95   0.375
  BSL0500                   10.60       0.00       3.05       0.02       7.53        4.05    38.97   0.710
  BSL0600                   10.60       0.00       3.42       3.04       4.14       20.48   120.32   0.390
  BSL0700                   10.60       0.00       4.42       1.06       5.12       85.89   370.29   0.483
  BSL0800                   10.60       0.00       4.02       1.93       4.65      104.80   578.04   0.439
  BSL0900                   10.60       0.00       2.51       1.75       6.34        2.67    25.97   0.598
  BSL1000                   10.60       0.00       3.11       2.28       5.21       11.37    82.41   0.491
  BSL1100                   10.60       0.00       3.07       0.41       7.12        8.70    78.68   0.671
  BSL1200                   10.60       0.00       3.32       4.06       3.22       14.60    97.57   0.303
  BSL1300                   10.60       0.00       3.67       0.04       6.88       28.39   193.54   0.649
  BSL1400                   10.60       0.00       3.61       2.87       4.12       53.47   366.03   0.389
  BSL1500                   10.60       0.00       3.46       0.16       6.98       21.11   154.74   0.658
  BSL1600                   10.60       0.00       4.40       2.61       3.59       81.12   508.47   0.339
  
  
  ******************
  Node Depth Summary
  ******************
  
  ---------------------------------------------------------------------------------
                                 Average  Maximum  Maximum  Time of Max    Reported
                                   Depth    Depth      HGL   Occurrence   Max Depth
  Node                 Type         Feet     Feet     Feet  days hr:min        Feet
  ---------------------------------------------------------------------------------
  0055                 JUNCTION    19.71    24.28   120.47     0  15:35       23.95
  0060                 JUNCTION    20.53    25.11   120.48     0  15:35       24.77
  0065                 JUNCTION    20.92    26.69   122.01     0  12:47       25.30
  0070                 JUNCTION    22.23    28.07   122.08     0  12:47       26.60
  7999                 JUNCTION    23.35    24.03    64.03    61  00:19       24.03
  8000                 JUNCTION    20.35    21.03    64.03    61  00:34       21.03
  8001                 JUNCTION    19.35    20.03    64.03    61  01:40       20.03
  8002                 JUNCTION    18.35    19.03    64.03    61  02:17       19.03
  8003                 JUNCTION    17.35    18.03    64.03    61  04:11       18.03
  8004                 JUNCTION    16.35    17.03    64.03    61  00:16       17.03
  8005                 JUNCTION    15.35    16.03    64.03    61  04:41       16.03
  8006                 JUNCTION    14.35    15.03    64.03    61  00:22       15.03
  8007                 JUNCTION    13.35    14.03    64.03    61  01:44       14.03
  0010                 OUTFALL      7.00     7.00    89.77     0  00:00        7.00
  7998                 OUTFALL     33.35    34.03    64.03    61  00:00       34.03
  0015                 STORAGE      3.04     3.28    93.04     0  15:42        3.28
  0020                 STORAGE      6.80     7.61    99.86     0  15:42        7.61
  0025                 STORAGE      9.84    11.36   104.45     0  15:41       11.36
  0030                 STORAGE     12.99    15.13   108.49     0  15:40       15.13
  0035                 STORAGE     18.04    21.54   117.31     0  15:39       21.54
  0040                 STORAGE     18.93    22.50   117.78     0  15:39       22.50
  0045                 STORAGE     18.89    22.57   118.27     0  15:31       22.57
  0050                 STORAGE     19.13    22.94   118.86     0  15:31       22.94
  0100                 STORAGE     41.70    46.46   121.46     0  15:29       46.41
  0300                 STORAGE     17.11    50.00   145.00     0  08:44       50.00
  0500                 STORAGE     21.72    26.20   121.20     0  15:08       26.20
  0700                 STORAGE     41.71    46.01   121.01     0  15:05       46.01
  0900                 STORAGE     26.71    31.06   121.06     0  15:26       31.06
  1100                 STORAGE     31.72    36.11   121.11     0  15:06       36.10
  1300                 STORAGE     35.83    50.00   125.00     0  08:33       50.00
  1500                 STORAGE     32.53    50.00   135.00     0  07:21       50.00
  1350                 STORAGE     21.60    39.62   134.62     0  09:58       39.61
  0250                 STORAGE     17.07    36.30   131.20     0  12:55       36.10
  0200                 STORAGE     17.76    36.44   130.64     0  12:55       36.29
  0150                 STORAGE     26.27    50.00   140.40     0  08:29       50.00
  
  
  *******************
  Node Inflow Summary
  *******************
  
  -------------------------------------------------------------------------------------------------
                                  Maximum  Maximum                  Lateral       Total        Flow
                                  Lateral    Total  Time of Max      Inflow      Inflow     Balance
                                   Inflow   Inflow   Occurrence      Volume      Volume       Error
  Node                 Type           CFS      CFS  days hr:min    10^6 gal    10^6 gal     Percent
  -------------------------------------------------------------------------------------------------
  0055                 JUNCTION      0.00   195.12     0  10:45           0   5.42e+003       0.018
  0060                 JUNCTION      0.00   213.51     0  10:27           0   5.42e+003       0.015
  0065                 JUNCTION      0.00   254.69     0  08:30           0   5.42e+003      -0.096
  0070                 JUNCTION      0.00   319.98     0  08:29           0   5.42e+003       0.059
  7999                 JUNCTION      0.00    51.85    16  00:57           0         799      13.945
  8000                 JUNCTION      0.00     2.88    49  03:48           0        30.1     267.028
  8001                 JUNCTION      0.00    11.77    30  11:26           0        87.1       3.679
  8002                 JUNCTION      0.00    12.57    31  04:18           0        87.7       3.909
  8003                 JUNCTION      0.00    13.35    22  11:12           0        95.1       3.794
  8004                 JUNCTION      0.00    13.84    29  00:13           0         109       3.415
  8005                 JUNCTION      0.00     8.62    27  19:44           0        56.6       6.993
  8006                 JUNCTION      0.00    14.61    31  14:26           0         108       3.636
  8007                 JUNCTION      0.00    12.21    28  19:00           0        95.3       4.166
  0010                 OUTFALL       0.00   149.04     0  15:43           0   5.41e+003       0.000
  7998                 OUTFALL       0.00    12.84     0  01:08           0         212       0.000
  0015                 STORAGE       0.00   149.04     0  15:42           0   5.41e+003       0.000
  0020                 STORAGE       0.00   149.06     0  15:41           0   5.41e+003       0.002
  0025                 STORAGE       0.00   149.09     0  15:40           0   5.41e+003       0.001
  0030                 STORAGE       0.00   149.22     0  15:27           0   5.41e+003       0.002
  0035                 STORAGE       0.00   149.96     0  15:32           0   5.41e+003       0.002
  0040                 STORAGE       0.00   159.66     0  11:29           0   5.42e+003       0.002
  0045                 STORAGE       0.00   162.02     0  11:29           0   5.42e+003       0.003
  0050                 STORAGE       0.00   178.54     0  11:14           0   5.42e+003       0.004
  0100                 STORAGE     759.09100709.02     0  14:32         143   9.39e+004     -36.312
  0300                 STORAGE     293.24   293.24     0  09:30        46.7        87.6       0.202
  0500                 STORAGE     159.29  2928.03     0  08:34        24.5   4.12e+003       1.224
  0700                 STORAGE     921.35 38070.06    33  15:36         191   1.46e+005      -0.726
  0900                 STORAGE     108.37 10119.94     0  08:31          14   1.53e+004       0.708
  1100                 STORAGE     176.25  1410.81     0  08:52        23.3   4.49e+003       0.539
  1300                 STORAGE     550.75 34391.52    58  08:36        81.9    1.1e+005     -26.092
  1500                 STORAGE     663.21 10480.78     0  10:58         102    3.7e+004      -1.413
  1350                 STORAGE       0.00 10128.06    53  06:52           0   3.24e+004     -19.366
  0250                 STORAGE       0.00   193.92     0  08:48           0         133       1.321
  0200                 STORAGE       0.00   395.86     0  12:48           0         132     -48.029
  0150                 STORAGE       0.00 74015.26     0  15:29           0   1.13e+005     -12.375
  
  
  **********************
  Node Surcharge Summary
  **********************
  
  Surcharging occurs when water rises above the top of the highest conduit.
  ---------------------------------------------------------------------
                                               Max. Height   Min. Depth
                                   Hours       Above Crown    Below Rim
  Node                 Type      Surcharged           Feet         Feet
  ---------------------------------------------------------------------
  0055                 JUNCTION     1462.05          5.180       25.720
  0060                 JUNCTION     1462.25          6.007       24.893
  0065                 JUNCTION     1464.08         16.189       23.311
  0070                 JUNCTION     1464.26         17.565       21.935
  
  
  *********************
  Node Flooding Summary
  *********************
  
  Flooding refers to all water that overflows a node, whether it ponds or not.
  --------------------------------------------------------------------------
                                                             Total   Maximum
                                 Maximum   Time of Max       Flood    Ponded
                        Hours       Rate    Occurrence      Volume     Depth
  Node                 Flooded       CFS   days hr:min    10^6 gal      Feet
  --------------------------------------------------------------------------
  0300                    3.91    132.08      0  09:28       6.855     0.000
  1300                  377.01  17027.77     42  16:47   59503.338     0.000
  1500                  222.58   4038.62      0  12:02    7123.218     0.000
  0150                  187.26  34201.33      0  15:58   55896.229     0.000
  
  
  **********************
  Storage Volume Summary
  **********************
  
  --------------------------------------------------------------------------------------------------
                         Average     Avg  Evap Exfil       Maximum     Max    Time of Max    Maximum
                          Volume    Pcnt  Pcnt  Pcnt        Volume    Pcnt     Occurrence    Outflow
  Storage Unit          1000 ft3    Full  Loss  Loss      1000 ft3    Full    days hr:min        CFS
  --------------------------------------------------------------------------------------------------
  0015                     0.464       0     0     0         0.536       0       0  15:42     149.04
  0020                     2.316       2     0     0         2.899       2       0  15:42     149.04
  0025                     4.854       4     0     0         6.454       5       0  15:41     149.06
  0030                     8.455       7     0     0        11.444       9       0  15:40     149.09
  0035                    16.313      13     0     0        23.204      19       0  15:39     149.22
  0040                   179.602      14     0     0       253.216      20       0  15:39     149.96
  0045                    17.903      14     0     0        25.478      20       0  15:31     159.66
  0050                    91.720      15     0     0       131.604      21       0  15:31     162.02
  0100                    17.331      70     0     0        21.369      87       0  15:29   82272.81
  0300                     2.437      16     0     0        15.155     100       0  08:44     193.92
  0500                     1.292      20     0     0         1.843      28       0  15:08    1651.61
  0700                    32.995      71     0     0        39.590      85       0  15:05   38226.62
  0900                     0.786      33     0     0         1.018      43       0  15:26   17661.96
  1100                     2.094      42     0     0         2.655      54       0  15:06    1333.41
  1300                     5.894      64     0     0         9.225     100       0  08:33   35698.49
  1500                     4.654      51     0     0         9.188     100       0  07:21   10128.06
  1350                   234.248      19     0     0       784.901      63       0  09:58   10216.41
  0250                     0.215       6     0     0         1.807      46       0  12:55     203.50
  0200                    15.870      13     0     0        66.392      53       0  12:55     499.24
  0150                     0.071      35     0     0         0.202     100       0  08:29  100367.58
  
  
  ***********************
  Outfall Loading Summary
  ***********************
  
  -----------------------------------------------------------
                         Flow       Avg       Max       Total
                         Freq      Flow      Flow      Volume
  Outfall Node           Pcnt       CFS       CFS    10^6 gal
  -----------------------------------------------------------
  0010                  99.76    137.24    149.04    5413.294
  7998                 100.00      5.33     12.84     211.711
  -----------------------------------------------------------
  System                99.88    142.57    160.72    5625.005
  
  
  ********************
  Link Flow Summary
  ********************
  
  -----------------------------------------------------------------------------
                                 Maximum  Time of Max   Maximum    Max/    Max/
                                  |Flow|   Occurrence   |Veloc|    Full    Full
  Link                 Type          CFS  days hr:min    ft/sec    Flow   Depth
  -----------------------------------------------------------------------------
  DUMMY0               CONDUIT     12.59     0  01:08      0.00    0.00    0.90
  DUMMY1               CONDUIT      2.88    49  03:48      0.00    0.00    0.75
  DUMMY2               CONDUIT     11.77    30  11:26      0.00    0.00    0.73
  DUMMY3               CONDUIT     12.57    31  04:18      0.00    0.00    0.72
  DUMMY4               CONDUIT     13.35    22  11:12      0.00    0.00    0.70
  DUMMY5               CONDUIT     13.84    29  00:13      0.00    0.00    0.68
  DUMMY6               CONDUIT      8.62    27  19:44      0.00    0.00    0.67
  DUMMY7               CONDUIT     14.61    31  14:26      0.01    0.00    0.65
  DUMMY8               CONDUIT     12.21    28  19:00      0.00    0.00    0.63
  CULV-20              CONDUIT    149.04     0  15:42     12.11    2.49    0.95
  CULV-25              CONDUIT    149.06     0  15:41     11.86    2.46    1.00
  CULV-30              CONDUIT    149.09     0  15:40     11.86    3.14    1.00
  CULV-35              CONDUIT    149.22     0  15:27      9.38    2.30    1.00
  CULV-40A             CONDUIT     49.99     0  15:32      7.07    1.22    1.00
  CULV-40B             CONDUIT     49.99     0  15:32      7.07    1.28    1.00
  CULV-40C             CONDUIT     49.99     0  15:32      7.07    1.17    1.00
  CULV-45A             CONDUIT     79.83     0  11:29      6.35    1.26    1.00
  CULV-45B             CONDUIT     79.83     0  11:29      6.35    1.12    1.00
  CULV-50              CONDUIT    162.02     0  11:29      6.75    1.69    1.00
  CULV-55A             CONDUIT     89.27     0  11:14      7.10    3.81    1.00
  CULV-55B             CONDUIT     89.27     0  11:14      7.10    3.47    1.00
  CHAN-60              CHANNEL    195.12     0  10:45      4.16    0.03    1.00
  CULV-65A             CONDUIT     72.42     0  10:27      7.53    2.72    1.00
  CULV-65B             CONDUIT    141.09     0  10:27      8.87    2.50    1.00
  CHAN-70              CHANNEL    254.69     0  08:30      1.82    0.07    1.00
  CULV-100A            CONDUIT    159.51     0  08:29     16.58    1.24    1.00
  CULV-100B            CONDUIT    160.71     0  08:29     16.70    1.58    1.00
  CHAN-700             CHANNEL  22037.70     0  08:30      3.11    0.32    1.00
  LKSerene_ovfl1       CONDUIT     13.97     0  08:15      7.96   72.92    1.00
  CULV-1350A           CONDUIT    183.11     0  09:22     28.29    4.07    1.00
  CULV-1350B           CONDUIT    183.11     0  09:22     28.29    4.07    1.00
  CHAN-900             CHANNEL  17657.72     0  08:19      3.86    0.08    1.00
  CULV-15              CONDUIT    149.04     0  15:43     12.42    0.72    0.91
  CULV-300A            CONDUIT    193.92     0  08:48     39.51    3.87    1.00
  CULV-300B            CONDUIT    203.50     0  08:48     12.80    2.84    1.00
  CULV-300C            CONDUIT    499.24     0  12:56     49.38    2.45    1.00
  Crowell_ovfl         CONDUIT   2817.64     0  08:34      1.73    1.31    1.00
  LKSerene_ovfl2       CONDUIT   1331.19     7  12:19      1.35    0.13    1.00
  Weir1500a            WEIR      1477.40    53  06:52                      0.76
  Weir1500b            WEIR      8650.66    53  06:52                      0.74
  Weir1300a            WEIR     35698.49    29  02:23                      0.54
  Weir0150a            WEIR    100367.58     0  14:32                      0.90
  
  
  ***************************
  Flow Classification Summary
  ***************************
  
  -------------------------------------------------------------------------------------
                      Adjusted    ---------- Fraction of Time in Flow Class ---------- 
                       /Actual         Up    Down  Sub   Sup   Up    Down  Norm  Inlet 
  Conduit               Length    Dry  Dry   Dry   Crit  Crit  Crit  Crit  Ltd   Ctrl  
  -------------------------------------------------------------------------------------
  DUMMY0                110.47   0.00  0.00  0.00  1.00  0.00  0.00  0.00  0.00  0.00
  DUMMY1                 61.00   0.00  0.00  0.00  1.00  0.00  0.00  0.00  0.00  0.00
  DUMMY2                  8.85   0.00  0.00  0.00  1.00  0.00  0.00  0.00  0.00  0.00
  DUMMY3                  9.76   0.00  0.00  0.00  1.00  0.00  0.00  0.00  0.00  0.00
  DUMMY4                 10.58   0.00  0.00  0.00  1.00  0.00  0.00  0.00  0.00  0.00
  DUMMY5                 11.33   0.00  0.00  0.00  1.00  0.00  0.00  0.00  0.00  0.00
  DUMMY6                 12.03   0.00  0.00  0.00  1.00  0.00  0.00  0.00  0.00  0.00
  DUMMY7                 12.69   0.00  0.00  0.00  1.00  0.00  0.00  0.00  0.00  0.00
  DUMMY8                 13.32   0.00  0.00  0.00  1.00  0.00  0.00  0.00  0.00  0.00
  CULV-20                 1.00   0.00  0.00  0.00  0.00  0.00  0.00  1.00  0.00  0.00
  CULV-25                 1.00   0.00  0.00  0.00  1.00  0.00  0.00  0.00  0.00  0.00
  CULV-30                 1.00   0.00  0.00  0.00  1.00  0.00  0.00  0.00  0.00  0.00
  CULV-35                 1.00   0.00  0.00  0.00  1.00  0.00  0.00  0.00  0.00  0.00
  CULV-40A                1.56   0.00  0.00  0.00  1.00  0.00  0.00  0.00  0.00  0.00
  CULV-40B                1.53   0.00  0.00  0.00  1.00  0.00  0.00  0.00  0.00  0.00
  CULV-40C                1.59   0.00  0.00  0.00  1.00  0.00  0.00  0.00  0.00  0.00
  CULV-45A                1.00   0.00  0.00  0.00  1.00  0.00  0.00  0.00  0.00  0.00
  CULV-45B                1.00   0.00  0.00  0.00  1.00  0.00  0.00  0.00  0.00  0.00
  CULV-50                 1.00   0.00  0.00  0.00  1.00  0.00  0.00  0.00  0.00  0.00
  CULV-55A                1.00   0.00  0.00  0.00  1.00  0.00  0.00  0.00  0.00  0.00
  CULV-55B                1.00   0.00  0.00  0.00  1.00  0.00  0.00  0.00  0.00  0.00
  CHAN-60                 1.00   0.00  0.00  0.00  1.00  0.00  0.00  0.00  0.00  0.00
  CULV-65A                1.00   0.00  0.00  0.00  1.00  0.00  0.00  0.00  0.00  0.00
  CULV-65B                1.00   0.00  0.00  0.00  1.00  0.00  0.00  0.00  0.00  0.00
  CHAN-70                 1.00   0.00  0.00  0.00  1.00  0.00  0.00  0.00  0.00  0.00
  CULV-100A               8.00   0.00  0.00  0.00  1.00  0.00  0.00  0.00  0.00  0.00
  CULV-100B               7.06   0.00  0.00  0.00  1.00  0.00  0.00  0.00  0.00  0.00
  CHAN-700                1.00   0.00  0.00  0.00  1.00  0.00  0.00  0.00  0.00  0.00
  LKSerene_ovfl1          1.00   0.00  0.00  0.00  1.00  0.00  0.00  0.00  0.00  0.00
  CULV-1350A              1.12   0.00  0.00  0.00  0.79  0.00  0.00  0.21  0.00  0.00
  CULV-1350B              1.12   0.00  0.00  0.00  0.79  0.00  0.00  0.21  0.00  0.00
  CHAN-900                1.00   0.00  0.00  0.00  1.00  0.00  0.00  0.00  0.00  0.00
  CULV-15                 1.00   0.00  0.00  0.00  1.00  0.00  0.00  0.00  0.00  0.00
  CULV-300A               1.10   0.00  0.00  0.00  1.00  0.00  0.00  0.00  0.00  0.00
  CULV-300B               1.10   0.00  0.00  0.00  1.00  0.00  0.00  0.00  0.00  0.00
  CULV-300C               1.00   0.00  0.00  0.00  0.94  0.06  0.00  0.00  0.00  0.00
  Crowell_ovfl            1.00   0.00  0.00  0.00  1.00  0.00  0.00  0.00  0.00  0.00
  LKSerene_ovfl2          1.00   0.00  0.00  0.00  1.00  0.00  0.00  0.00  0.00  0.00
  
  
  *************************
  Conduit Surcharge Summary
  *************************
  
  ----------------------------------------------------------------------------
                                                           Hours        Hours 
                         --------- Hours Full --------   Above Full   Capacity
  Conduit                Both Ends  Upstream  Dnstream   Normal Flow   Limited
  ----------------------------------------------------------------------------
  DUMMY0                      0.01      0.01   1473.00      0.01         0.01
  CULV-20                     0.01   1464.25      0.01   1464.47         0.01
  CULV-25                  1464.20   1464.40   1464.20   1464.50      1464.20
  CULV-30                  1464.25   1464.25   1464.52   1464.53         0.01
  CULV-35                  1464.35   1464.45   1464.35   1464.54      1464.35
  CULV-40A                 1464.56   1464.56   1464.57   1462.91         0.01
  CULV-40B                 1464.56   1464.56   1464.57   1463.30         0.01
  CULV-40C                 1464.56   1464.56   1464.58   1462.61         0.01
  CULV-45A                 1464.54   1464.54   1464.54   1463.53      1463.48
  CULV-45B                 1464.54   1464.54   1464.55     10.85        17.29
  CULV-50                  1464.51   1464.51   1464.54   1464.54      1464.50
  CULV-55A                 1464.49   1464.49   1464.52   1464.64         0.01
  CULV-55B                 1464.49   1464.49   1464.54   1464.64         0.01
  CHAN-60                  1462.05   1462.05   1462.25      0.01         0.01
  CULV-65A                 1464.73   1464.73   1464.73   1464.65         0.15
  CULV-65B                 1464.64   1464.64   1464.66   1464.65         0.13
  CHAN-70                  1464.08   1464.08   1464.26      0.01         0.01
  CULV-100A                1464.76   1464.76   1464.92      0.04         0.01
  CULV-100B                1464.80   1464.80   1464.92      0.27         0.01
  CHAN-700                 1464.18   1464.18   1464.31      0.01         0.02
  LKSerene_ovfl1           1464.74   1467.97   1464.74    679.55       721.04
  CULV-1350A               1023.69   1466.65   1030.04    810.85       380.18
  CULV-1350B               1023.69   1466.65   1030.04    810.85       380.18
  CHAN-900                 1463.49   1463.49   1464.70      0.01         0.01
  CULV-15                     0.01      0.01   1473.00      0.01         0.01
  CULV-300A                1464.46   1464.57   1465.70      9.76         9.59
  CULV-300B                1464.69   1464.69   1464.69      8.31        40.58
  CULV-300C                 906.95   1464.69    910.29      9.47       131.29
  Crowell_ovfl             1464.31   1464.31   1464.33      0.07         0.27
  LKSerene_ovfl2           1463.81   1463.81   1464.02      0.01         0.01
  

  Analysis begun on:  Wed Jan 02 04:58:17 2019
  Analysis ended on:  Wed Jan 02 05:02:58 2019
  Total elapsed time: 00:04:41