
  EPA STORM WATER MANAGEMENT MODEL - VERSION 5.1 (Build 5.1.012)
  --------------------------------------------------------------

  WARNING 04: minimum elevation drop used for Conduit 1543Q
  WARNING 04: minimum elevation drop used for Conduit 1765A
  WARNING 03: negative offset ignored for Link 22L1
  WARNING 04: minimum elevation drop used for Conduit 2469
  WARNING 03: negative offset ignored for Link 2771L1
  WARNING 04: minimum elevation drop used for Conduit 29
  WARNING 04: minimum elevation drop used for Conduit 411
  WARNING 03: negative offset ignored for Link 418L1
  WARNING 04: minimum elevation drop used for Conduit 5178
  WARNING 04: minimum elevation drop used for Conduit 5300
  WARNING 03: negative offset ignored for Link 5316
  WARNING 04: minimum elevation drop used for Conduit 576
  WARNING 03: negative offset ignored for Link 703
  WARNING 04: minimum elevation drop used for Conduit 791
  WARNING 04: minimum elevation drop used for Conduit 807B
  WARNING 04: minimum elevation drop used for Conduit ROWLETT12_L1
  WARNING 03: negative offset ignored for Link WC_JUNC1L1
  WARNING 03: negative offset ignored for Link WC_JUNC2L1
  WARNING 02: maximum depth increased for Node 1385A
  WARNING 02: maximum depth increased for Node 1847
  WARNING 02: maximum depth increased for Node CHAPARRAL_2
  
  **********************           Volume        Volume
  Rainfall Dependent I/I        acre-feet      10^6 gal
  **********************        ---------     ---------
  Sewershed Rainfall ......     28235.528      9200.969
  RDII Produced ...........       575.770       187.623
  RDII Ratio ..............         0.020
  
  
  *********************************************************
  NOTE: The summary statistics displayed in this report are
  based on results found at every computational time step,  
  not just on results from each reporting time step.
  *********************************************************
  
  ****************
  Analysis Options
  ****************
  Flow Units ............... MGD
  Process Models:
    Rainfall/Runoff ........ YES
    RDII ................... YES
    Snowmelt ............... NO
    Groundwater ............ NO
    Flow Routing ........... YES
    Ponding Allowed ........ NO
    Water Quality .......... NO
  Flow Routing Method ...... DYNWAVE
  Starting Date ............ 01/21/2009 00:00:00
  Ending Date .............. 01/29/2009 23:00:00
  Antecedent Dry Days ...... 5.0
  Report Time Step ......... 00:15:00
  Routing Time Step ........ 30.00 sec
  Variable Time Step ....... YES
  Maximum Trials ........... 8
  Number of Threads ........ 8
  Head Tolerance ........... 0.005000 ft
  
  
  **************************        Volume        Volume
  Flow Routing Continuity        acre-feet      10^6 gal
  **************************     ---------     ---------
  Dry Weather Inflow .......       358.590       116.852
  Wet Weather Inflow .......         0.000         0.000
  Groundwater Inflow .......         0.000         0.000
  RDII Inflow ..............       575.768       187.623
  External Inflow ..........         0.000         0.000
  External Outflow .........       521.246       169.856
  Flooding Loss ............       474.700       154.688
  Evaporation Loss .........         0.000         0.000
  Exfiltration Loss ........         0.000         0.000
  Initial Stored Volume ....         4.848         1.580
  Final Stored Volume ......        43.256        14.096
  Continuity Error (%) .....       -10.647
  
  
  *************************
  Highest Continuity Errors
  *************************
  Node 2131 (-40.83%)
  Node 2133 (27.24%)
  Node CHAPARRAL_2 (19.60%)
  Node 1521 (8.57%)
  Node NORTHMCKINNEY_LS (6.91%)
  
  
  ***************************
  Time-Step Critical Elements
  ***************************
  Link 1765A (37.48%)
  Link 1102 (16.72%)
  Link 1896 (14.64%)
  Link 791 (14.60%)
  Link 1468 (4.64%)
  
  
  ********************************
  Highest Flow Instability Indexes
  ********************************
  Link 5312 (139)
  Link 2472 (134)
  Link 411 (91)
  Link 1543Q (89)
  Link 2401 (85)
  
  
  *************************
  Routing Time Step Summary
  *************************
  Minimum Time Step           :     0.50 sec
  Average Time Step           :     6.43 sec
  Maximum Time Step           :    17.40 sec
  Percent in Steady State     :     0.00
  Average Iterations per Step :     7.99
  Percent Not Converging      :    98.77
  
  
  ******************
  Node Depth Summary
  ******************
  
  ---------------------------------------------------------------------------------
                                 Average  Maximum  Maximum  Time of Max    Reported
                                   Depth    Depth      HGL   Occurrence   Max Depth
  Node                 Type         Feet     Feet     Feet  days hr:min        Feet
  ---------------------------------------------------------------------------------
  02651                JUNCTION    13.90    15.36   495.36     3  16:07       15.32
  02655                JUNCTION     0.15     1.30   495.41     3  16:07        1.29
  1001                 JUNCTION     0.38     0.94   616.47     3  19:02        0.94
  1003                 JUNCTION     0.84     2.20   613.72     3  19:03        2.20
  1005                 JUNCTION     0.83     2.17   613.44     3  19:03        2.17
  1007                 JUNCTION     0.93     2.16   613.05     3  19:04        2.16
  1009                 JUNCTION     0.81     2.00   603.17     3  19:05        2.00
  1011                 JUNCTION     0.66     1.73   602.19     3  19:07        1.73
  1013                 JUNCTION     0.80     2.11   601.66     3  19:00        2.11
  1015                 JUNCTION     0.70     1.86   600.80     3  19:10        1.86
  1017                 JUNCTION     0.68     1.83   600.66     3  19:10        1.83
  1019                 JUNCTION     0.70     1.97   600.29     3  19:10        1.97
  1021                 JUNCTION     0.79     2.10   600.19     3  19:11        2.10
  1023                 JUNCTION     0.80     2.02   599.77     3  19:11        2.02
  1025                 JUNCTION     0.63     1.62   599.03     3  19:12        1.62
  1027                 JUNCTION     0.59     1.56   598.36     3  19:10        1.56
  1029                 JUNCTION     0.81     2.07   598.12     3  19:10        2.07
  1031                 JUNCTION     0.56     1.44   596.88     3  19:10        1.44
  1033                 JUNCTION     0.83     2.26   595.74     3  19:10        2.26
  1035                 JUNCTION     0.80     2.16   595.25     3  19:12        2.16
  1037                 JUNCTION     0.74     2.06   594.82     3  19:16        2.06
  1039                 JUNCTION     0.83     2.26   594.54     3  19:17        2.26
  1041                 JUNCTION     0.85     2.30   594.29     3  19:18        2.30
  1043                 JUNCTION     0.85     2.30   594.18     3  19:19        2.30
  1045                 JUNCTION     0.87     2.28   593.52     3  19:22        2.28
  1047                 JUNCTION     0.81     2.17   593.16     3  19:23        2.17
  1049                 JUNCTION     0.80     2.16   593.04     3  19:23        2.16
  1051                 JUNCTION     0.79     2.16   592.78     3  19:25        2.16
  1053                 JUNCTION     0.77     2.19   592.54     3  19:26        2.19
  1055                 JUNCTION     0.82     2.38   592.37     3  19:27        2.38
  1057                 JUNCTION     0.94     2.59   592.19     3  19:28        2.59
  1059                 JUNCTION     0.99     2.57   591.82     3  19:29        2.57
  1061                 JUNCTION     0.94     2.41   591.52     3  19:30        2.41
  1063                 JUNCTION     0.82     2.18   591.13     3  19:30        2.18
  1065                 JUNCTION     0.81     2.09   590.77     3  19:31        2.09
  1067                 JUNCTION     0.78     1.97   590.50     3  19:31        1.97
  1069                 JUNCTION     0.69     1.83   590.28     3  19:32        1.83
  1073                 JUNCTION     0.62     1.91   588.92     3  19:33        1.91
  1075                 JUNCTION     0.44     1.13   587.01     3  19:34        1.13
  1077                 JUNCTION     0.47     1.21   585.25     3  19:34        1.21
  1079                 JUNCTION     0.50     1.30   583.05     3  19:35        1.30
  1081                 JUNCTION     0.58     1.50   580.83     3  19:35        1.50
  1083                 JUNCTION     0.74     1.97   579.48     3  19:37        1.97
  1085                 JUNCTION     0.77     2.08   577.62     3  19:39        2.08
  1087                 JUNCTION     0.90     2.65   576.29     3  19:43        2.65
  1089                 JUNCTION     1.05     2.72   575.18     3  19:44        2.72
  1091                 JUNCTION     0.72     1.94   573.71     3  19:46        1.94
  1093                 JUNCTION     0.75     2.00   573.43     3  19:47        2.00
  1095                 JUNCTION     0.81     2.12   572.33     3  19:40        2.12
  1097_MH              JUNCTION     0.78     2.03   572.19     3  19:40        2.03
  1099                 JUNCTION     0.51     1.40   571.54     3  19:40        1.40
  1101                 JUNCTION     1.07     3.02   570.86     3  19:24        3.00
  1103                 JUNCTION    60.27   252.90   825.40     4  01:55      110.03
  1106                 JUNCTION     0.22     0.47   599.10     3  19:10        0.47
  1107                 JUNCTION     0.26     0.56   597.16     3  19:10        0.56
  1109                 JUNCTION     0.23     0.50   596.70     3  19:10        0.49
  1111                 JUNCTION     0.36     0.74   595.69     3  19:10        0.74
  1113                 JUNCTION     0.25     0.55   594.95     3  19:12        0.55
  1115                 JUNCTION     0.41     0.88   591.97     3  19:21        0.88
  1117                 JUNCTION     0.24     0.52   590.38     3  19:25        0.52
  1119                 JUNCTION     0.36     0.77   588.38     3  19:28        0.77
  1121                 JUNCTION     0.26     0.56   587.42     3  19:30        0.56
  1123                 JUNCTION     0.44     0.88   587.18     3  19:34        0.88
  1125                 JUNCTION     0.20     0.48   585.95     3  18:50        0.48
  1127                 JUNCTION     0.31     0.75   580.67     3  18:50        0.75
  1129                 JUNCTION     0.29     0.70   579.12     3  18:50        0.70
  1131                 JUNCTION     0.48     1.18   578.34     3  18:51        1.18
  1133                 JUNCTION     0.31     0.77   576.89     3  18:53        0.77
  1135                 JUNCTION     0.31     0.76   575.90     3  18:55        0.76
  1137                 JUNCTION     0.54     1.27   574.60     3  18:57        1.27
  1139                 JUNCTION     0.33     0.83   573.86     3  19:00        0.83
  1141                 JUNCTION     0.36     0.89   571.97     3  19:03        0.89
  1144                 JUNCTION     0.00     0.00   569.33     0  00:00        0.00
  1146                 JUNCTION     0.00     0.00   568.26     0  00:00        0.00
  1148                 JUNCTION     0.00     0.00   567.60     0  00:00        0.00
  1150                 JUNCTION     0.00     0.00   567.19     0  00:00        0.00
  1152                 JUNCTION     0.00     0.00   566.26     0  00:00        0.00
  1154                 JUNCTION     0.00     0.00   564.87     0  00:00        0.00
  1156                 JUNCTION     0.05     0.18   563.71     3  17:50        0.18
  1158                 JUNCTION     0.08     0.24   562.45     3  17:50        0.24
  1160                 JUNCTION     0.08     0.24   559.44     3  17:52        0.24
  1162                 JUNCTION     0.08     0.24   556.69     3  17:56        0.24
  1164                 JUNCTION     0.10     0.29   554.17     3  18:02        0.29
  1166                 JUNCTION     0.10     0.30   552.57     3  18:00        0.30
  1168                 JUNCTION     0.14     0.40   551.09     3  18:00        0.40
  117                  JUNCTION     0.13     0.28   593.99     3  17:30        0.28
  1170                 JUNCTION     0.16     0.45   550.18     3  18:00        0.45
  1172                 JUNCTION     0.14     0.41   549.22     3  18:02        0.41
  1174                 JUNCTION     0.16     0.46   548.00     3  18:04        0.46
  1176                 JUNCTION     0.15     0.41   547.33     3  18:06        0.41
  1178                 JUNCTION     0.11     0.32   546.56     3  18:07        0.32
  1180                 JUNCTION     0.14     0.39   545.46     3  18:09        0.39
  1182                 JUNCTION     0.17     0.47   544.23     3  18:11        0.47
  1184                 JUNCTION     0.14     0.39   543.19     3  18:14        0.39
  1186                 JUNCTION     0.20     0.55   542.11     3  18:10        0.55
  1188                 JUNCTION     0.16     0.45   541.13     3  18:19        0.45
  119                  JUNCTION     0.29     0.64   575.78     3  17:30        0.64
  1190                 JUNCTION     0.26     0.71   540.62     3  18:22        0.71
  1192                 JUNCTION     0.18     0.48   539.78     3  18:29        0.48
  1194                 JUNCTION     0.12     0.31   538.35     3  18:30        0.31
  1196                 JUNCTION     0.17     0.47   537.32     3  18:30        0.47
  1198                 JUNCTION     0.18     0.48   535.56     3  18:31        0.48
  1200                 JUNCTION     0.21     0.53   534.13     3  18:30        0.53
  1202                 JUNCTION     0.20     0.52   532.94     3  18:32        0.52
  1204                 JUNCTION     0.21     0.54   532.25     3  18:34        0.54
  1206                 JUNCTION     0.18     0.46   531.20     3  18:37        0.46
  1208                 JUNCTION     0.18     0.46   528.93     3  18:39        0.46
  121                  JUNCTION     0.28     0.61   574.93     3  17:30        0.61
  1210                 JUNCTION     0.18     0.46   525.91     3  18:44        0.46
  1212                 JUNCTION     0.20     0.53   523.63     3  18:40        0.53
  1214                 JUNCTION     0.22     0.59   521.48     3  18:40        0.59
  1216                 JUNCTION     0.23     0.62   520.37     3  18:41        0.62
  1218                 JUNCTION     0.23     0.59   518.90     3  18:43        0.59
  1220                 JUNCTION     0.36     0.87   518.21     3  18:45        0.87
  1222                 JUNCTION     0.22     0.53   517.03     3  18:48        0.53
  1224                 JUNCTION     0.32     0.80   516.52     3  18:52        0.80
  1226                 JUNCTION     0.35     0.87   515.86     3  18:56        0.87
  1228                 JUNCTION     0.27     0.65   514.87     3  19:04        0.65
  123                  JUNCTION     0.33     0.72   572.95     3  17:31        0.72
  1230                 JUNCTION     0.27     0.66   514.16     3  19:06        0.66
  1232                 JUNCTION     0.30     0.74   513.51     3  19:08        0.74
  1234                 JUNCTION     0.31     0.76   513.42     3  19:09        0.76
  1236                 JUNCTION     0.40     0.88   512.88     3  19:11        0.88
  1240                 JUNCTION     0.92     2.37   588.88     3  19:34        2.37
  1243                 JUNCTION     0.75     0.96   740.96     3  21:40        0.96
  1245                 JUNCTION     0.91     1.17   731.43     3  21:52        1.17
  1247                 JUNCTION     0.79     1.02   725.68     3  21:20        1.02
  1249                 JUNCTION     0.70     0.90   718.16     3  21:20        0.90
  125                  JUNCTION     0.31     0.68   571.48     3  17:33        0.68
  1251                 JUNCTION     0.88     1.14   711.90     3  21:20        1.14
  1253                 JUNCTION     0.82     1.06   705.32     3  21:20        1.06
  1255                 JUNCTION     0.85     1.13   698.89     3  21:10        1.13
  1257                 JUNCTION     1.00     1.38   692.64     3  21:00        1.38
  1259                 JUNCTION     1.05     1.49   684.55     3  21:00        1.49
  1261                 JUNCTION     0.76     1.00   681.76     3  21:00        1.00
  1263                 JUNCTION     0.74     1.00   679.53     3  21:00        1.00
  1265                 JUNCTION     1.19     1.66   677.26     3  21:00        1.66
  1267                 JUNCTION     1.07     1.48   675.25     3  21:01        1.48
  1269                 JUNCTION     1.04     1.42   672.46     3  21:02        1.42
  127                  JUNCTION     0.29     0.63   569.33     3  17:34        0.63
  1271                 JUNCTION     1.02     1.41   670.71     3  21:03        1.41
  1273                 JUNCTION     0.88     1.20   667.50     3  21:03        1.20
  1275                 JUNCTION     1.24     1.75   665.25     3  21:05        1.75
  1277                 JUNCTION     1.00     1.37   661.79     3  21:06        1.37
  1279                 JUNCTION     1.31     1.91   660.05     3  21:00        1.91
  1281                 JUNCTION     0.85     1.18   657.22     3  21:00        1.18
  1283                 JUNCTION     0.97     1.37   655.44     3  21:00        1.37
  1285                 JUNCTION     1.04     1.49   653.02     3  21:01        1.49
  1287                 JUNCTION     0.99     1.40   650.35     3  21:01        1.40
  1289                 JUNCTION     1.04     1.48   647.93     3  21:02        1.48
  129                  JUNCTION     0.36     0.80   567.12     3  17:43        0.80
  1291                 JUNCTION     1.09     1.57   646.01     3  21:02        1.57
  1293                 JUNCTION     1.06     1.52   644.95     3  21:03        1.52
  1295                 JUNCTION     1.03     1.47   643.84     3  21:03        1.47
  1297                 JUNCTION     1.06     1.52   641.55     3  21:04        1.52
  1299                 JUNCTION     1.03     1.46   640.18     3  21:04        1.46
  1301                 JUNCTION     1.02     1.48   638.46     3  21:05        1.48
  1303                 JUNCTION     1.12     1.65   637.16     3  21:06        1.65
  1305                 JUNCTION     1.20     1.77   635.74     3  21:06        1.77
  1307                 JUNCTION     1.08     1.57   634.35     3  21:07        1.57
  1309                 JUNCTION     1.68     2.21   633.32     3  21:07        2.21
  131                  JUNCTION     0.36     0.81   565.39     3  17:38        0.81
  1311                 JUNCTION     1.12     1.46   632.17     3  21:07        1.46
  1311_W               JUNCTION     0.38     0.67   631.83     3  21:08        0.67
  1313                 JUNCTION     0.41     0.72   629.43     3  21:10        0.72
  1315                 JUNCTION     0.39     0.69   627.60     3  21:11        0.69
  1317                 JUNCTION     0.27     0.48   625.61     3  21:12        0.48
  1319                 JUNCTION     0.34     0.60   623.27     3  21:12        0.60
  1321                 JUNCTION     0.40     0.71   620.88     3  20:50        0.71
  1323                 JUNCTION     0.37     0.75   618.12     3  20:50        0.75
  1325                 JUNCTION     0.58     2.60   614.10     3  19:03        1.99
  1327                 JUNCTION     0.88     2.71   611.23     3  19:03        2.48
  1329                 JUNCTION     0.56     1.25   607.17     3  20:50        1.25
  133                  JUNCTION     0.28     0.62   563.18     3  17:39        0.62
  1331                 JUNCTION     0.39     0.77   602.36     3  20:51        0.77
  1333                 JUNCTION     0.45     0.89   597.89     3  20:51        0.89
  1335                 JUNCTION     0.39     0.75   597.00     3  20:52        0.75
  1337                 JUNCTION     0.40     0.79   595.64     3  20:52        0.79
  1339                 JUNCTION     0.42     0.82   595.32     3  20:53        0.82
  1345                 JUNCTION     0.89     1.57   592.20     3  21:03        1.57
  1347                 JUNCTION     1.26     1.97   590.42     3  21:04        1.97
  1349                 JUNCTION     1.56     2.34   589.82     3  21:05        2.34
  135                  JUNCTION     0.38     0.84   561.28     3  17:40        0.84
  1351                 JUNCTION     1.18     1.83   587.86     3  21:05        1.83
  1353                 JUNCTION     1.49     2.34   586.59     3  21:07        2.34
  1355                 JUNCTION     1.20     1.87   584.20     3  21:08        1.87
  1357                 JUNCTION     1.53     2.41   582.68     3  21:10        2.41
  1359                 JUNCTION     1.18     1.87   580.06     3  21:10        1.87
  1361                 JUNCTION     1.31     2.11   578.22     3  21:10        2.11
  1363                 JUNCTION     1.01     1.56   575.69     3  21:11        1.56
  1365                 JUNCTION     1.56     2.43   574.47     3  21:11        2.43
  1367                 JUNCTION     1.22     2.03   572.60     3  21:13        2.03
  1369                 JUNCTION     1.89     2.94   572.13     3  21:14        2.94
  137                  JUNCTION     0.38     0.85   559.63     3  17:42        0.85
  1371                 JUNCTION     0.82     1.26   568.72     3  21:14        1.26
  1373                 JUNCTION     1.20     1.92   567.60     3  21:14        1.92
  1375                 JUNCTION     1.29     2.06   566.87     3  21:15        2.06
  1377                 JUNCTION     1.58     2.50   565.80     3  21:17        2.50
  1379                 JUNCTION     1.21     1.94   564.77     3  21:18        1.94
  1381                 JUNCTION     1.08     1.71   562.84     3  21:18        1.71
  1383                 JUNCTION     1.51     2.37   562.42     3  21:19        2.37
  1385A                JUNCTION     1.02     1.63   560.98     3  21:20        1.63
  1385_W               JUNCTION     0.00     0.00   559.35     0  00:00        0.00
  1387                 JUNCTION     0.15     0.26   558.25     3  20:10        0.26
  1389                 JUNCTION     0.15     0.26   556.88     3  20:20        0.26
  139                  JUNCTION     0.33     0.74   557.28     3  17:48        0.74
  1391                 JUNCTION     0.14     0.25   554.51     3  20:27        0.25
  1393                 JUNCTION     0.19     0.33   552.25     3  20:30        0.33
  1395                 JUNCTION     0.14     0.27   549.84     3  19:20        0.27
  1397                 JUNCTION     0.13     0.25   547.20     3  19:21        0.25
  1399                 JUNCTION     0.15     0.27   544.57     3  19:24        0.27
  1401                 JUNCTION     0.16     0.30   543.02     3  19:30        0.30
  1403                 JUNCTION     0.21     0.36   541.78     3  19:35        0.36
  1405                 JUNCTION     0.17     0.30   540.66     3  19:04        0.30
  1407                 JUNCTION     0.30     0.58   540.02     3  18:30        0.58
  1409                 JUNCTION     0.19     0.38   539.46     3  18:33        0.38
  141                  JUNCTION     0.36     0.80   556.29     3  17:48        0.80
  1411                 JUNCTION     0.23     0.46   538.06     3  18:37        0.46
  1413                 JUNCTION     0.21     0.42   536.97     3  18:48        0.42
  1415                 JUNCTION     0.22     0.46   536.05     3  18:40        0.46
  1417                 JUNCTION     0.19     0.39   535.08     3  18:40        0.39
  1419                 JUNCTION     0.21     0.44   534.63     3  18:42        0.44
  1421                 JUNCTION     0.26     0.50   533.97     3  18:30        0.50
  1423                 JUNCTION     0.31     0.58   533.37     3  18:31        0.58
  1425                 JUNCTION     0.27     0.53   532.56     3  18:34        0.53
  1427                 JUNCTION     0.32     0.62   532.00     3  18:36        0.62
  1429                 JUNCTION     0.26     0.52   530.92     3  18:45        0.52
  143                  JUNCTION     0.33     0.71   555.54     3  17:49        0.71
  1431                 JUNCTION     0.33     0.69   530.44     3  18:30        0.69
  1433                 JUNCTION     0.28     0.61   529.35     3  18:30        0.61
  1435                 JUNCTION     0.41     0.69   529.14     3  19:05        0.69
  1437                 JUNCTION     0.41     0.75   528.44     3  18:10        0.75
  1439                 JUNCTION     0.52     0.97   527.76     3  18:20        0.97
  1441                 JUNCTION     0.46     0.85   526.44     3  18:26        0.85
  1443                 JUNCTION     0.43     0.80   525.31     3  18:33        0.80
  1445                 JUNCTION     0.46     0.87   524.25     3  18:38        0.87
  1447                 JUNCTION     0.50     0.93   522.98     3  18:41        0.93
  1449                 JUNCTION     0.52     1.11   522.92     4  05:32        0.81
  1451                 JUNCTION     0.62     2.15   522.84     4  05:31        1.69
  1453                 JUNCTION     0.63     2.49   522.70     4  05:31        2.19
  1455                 JUNCTION     0.67     9.36   528.00     4  05:27        4.08
  1457                 JUNCTION     0.59     9.45   527.50     4  05:25        4.74
  1459                 JUNCTION     0.75    10.04   527.00     4  05:13        5.91
  1461                 JUNCTION     1.40     7.10   523.00     4  05:11        7.10
  1463                 JUNCTION     1.85    15.10   530.50     4  05:09        7.95
  1465                 JUNCTION     2.02     9.29   524.50     4  05:09        8.58
  1467                 JUNCTION     3.47    13.78   527.53     4  05:07       11.43
  1469                 JUNCTION    88.32   302.88   805.88     4  03:40      126.84
  147                  JUNCTION     0.17     0.38   585.08     3  17:30        0.38
  1471                 JUNCTION     0.86     1.23   631.85     3  21:08        1.23
  1473                 JUNCTION     0.91     1.28   628.22     3  21:08        1.28
  1477                 JUNCTION     0.95     1.38   624.67     3  21:00        1.38
  1479                 JUNCTION     1.04     1.55   622.99     3  21:00        1.55
  1481                 JUNCTION     0.88     1.27   619.92     3  21:00        1.27
  1483                 JUNCTION     1.15     1.70   616.12     3  21:00        1.70
  1485                 JUNCTION     1.14     1.70   613.99     3  21:00        1.70
  1487                 JUNCTION     1.16     1.82   613.32     3  21:01        1.82
  1489                 JUNCTION     1.45     2.16   612.93     3  21:02        2.16
  1491                 JUNCTION     1.37     1.90   611.34     3  21:03        1.90
  1493                 JUNCTION     0.89     1.25   610.26     3  21:04        1.25
  1495                 JUNCTION     1.32     1.89   608.75     3  21:04        1.89
  1497                 JUNCTION     1.31     1.86   608.32     3  21:05        1.86
  1499                 JUNCTION     1.25     1.79   607.87     3  21:06        1.79
  150                  JUNCTION     0.20     0.35   682.82     3  17:10        0.35
  1501                 JUNCTION     1.40     2.03   607.07     3  21:00        2.03
  1503                 JUNCTION     1.30     1.89   606.32     3  21:00        1.89
  1505                 JUNCTION     1.29     1.88   606.28     3  21:00        1.88
  1507                 JUNCTION     1.31     1.89   605.99     3  21:00        1.89
  1509                 JUNCTION     1.31     1.86   605.76     3  21:01        1.86
  151                  JUNCTION     0.21     0.45   680.38     3  17:10        0.45
  1511                 JUNCTION     0.88     1.29   604.74     3  21:01        1.29
  1513                 JUNCTION     1.01     1.49   600.43     3  21:01        1.49
  1515                 JUNCTION     0.92     1.37   599.18     3  21:02        1.37
  1517                 JUNCTION     1.24     1.93   592.21     3  21:03        1.93
  1520                 JUNCTION    54.71   247.25   784.25     4  03:40       92.64
  1521                 JUNCTION    55.46   803.86  1381.36     3  20:12      159.15
  1524                 JUNCTION     0.30     1.09   637.35     4  05:39        1.07
  1526                 JUNCTION     0.51     1.31   631.32     4  06:06        1.31
  1528                 JUNCTION     0.45     1.31   621.72     4  06:04        1.31
  153                  JUNCTION     0.21     0.45   677.96     3  17:10        0.45
  1530                 JUNCTION     0.43     1.27   619.87     3  19:07        1.27
  1532                 JUNCTION     0.45     1.31   619.79     3  19:11        1.31
  1534                 JUNCTION     0.45     1.27   608.42     3  19:27        1.27
  1536                 JUNCTION     0.45     1.30   601.94     3  19:36        1.30
  1538                 JUNCTION     0.41     1.18   590.61     3  19:45        1.18
  1540                 JUNCTION     0.39     1.12   588.53     3  19:47        1.12
  1542                 JUNCTION     0.40     1.15   585.54     3  19:48        1.15
  1542-DUM1            JUNCTION     0.28     0.91   584.70     3  19:49        0.91
  1542-DUM10           JUNCTION     1.48     4.34   574.83     3  20:04        4.34
  1542-DUM11           JUNCTION     0.24     0.67   565.61     3  20:05        0.67
  1542-DUM12           JUNCTION     2.70     4.28   565.28     3  20:07        4.28
  1542-DUM13           JUNCTION    12.05    15.32   565.32     3  20:16       15.27
  1542-DUM14           JUNCTION    12.06    15.33   565.32     3  20:12       15.29
  1542-DUM15           JUNCTION    19.06    22.33   565.32     3  19:39       22.28
  1542-DUM16           JUNCTION    19.06    22.32   565.31     3  20:05       22.27
  1542-DUM17           JUNCTION    11.57    14.83   565.31     3  20:10       14.79
  1542-DUM18           JUNCTION    10.50    13.76   565.31     3  19:56       13.70
  1542-DUM2            JUNCTION     0.21     0.59   582.57     3  19:49        0.59
  1542-DUM3            JUNCTION     0.24     0.68   580.99     3  19:50        0.68
  1542-DUM4            JUNCTION     0.37     1.06   579.56     3  19:50        1.06
  1542-DUM5            JUNCTION     0.37     1.07   578.22     3  19:50        1.07
  1542-DUM6            JUNCTION     0.25     0.86   577.44     3  19:51        0.85
  1542-DUM7            JUNCTION     0.22     0.61   575.78     3  19:52        0.61
  1542-DUM8            JUNCTION     0.27     0.78   574.54     3  19:52        0.78
  1542-DUM9            JUNCTION     0.41     1.58   574.83     3  20:06        1.57
  1544                 JUNCTION    10.80    14.03   565.28     3  19:45       13.99
  1546                 JUNCTION    10.54    13.72   565.22     3  20:06       13.70
  1548                 JUNCTION     0.33     1.03   565.03     3  20:10        1.03
  155                  JUNCTION     0.21     0.44   675.81     3  17:10        0.44
  1552                 JUNCTION     0.09     0.29   539.07     3  16:40        0.29
  1553                 JUNCTION     3.00     6.22   534.48     4  12:55        5.94
  1557                 JUNCTION     1.01     1.83   526.76     3  15:34        1.80
  1559                 JUNCTION     1.02     1.82   525.72     3  15:35        1.78
  1561                 JUNCTION     1.02     1.87   524.67     3  15:37        1.82
  1563                 JUNCTION     1.16     1.98   523.11     3  15:39        1.96
  1565                 JUNCTION     1.01     1.83   519.45     3  15:41        1.81
  1567                 JUNCTION     1.30     2.19   518.60     3  15:44        2.19
  1569                 JUNCTION     1.17     2.08   513.96     3  15:46        2.08
  157                  JUNCTION     0.19     0.40   673.33     3  17:11        0.40
  1571                 JUNCTION     1.15     2.08   513.19     3  15:48        2.07
  1573                 JUNCTION     1.19     2.09   512.39     3  15:50        2.07
  1575                 JUNCTION     1.09     2.00   511.42     3  15:52        1.97
  1577                 JUNCTION     1.19     2.10   510.92     3  15:54        2.09
  1579                 JUNCTION     1.16     2.14   510.05     3  15:56        2.13
  1581                 JUNCTION     1.21     2.19   509.34     3  15:58        2.19
  1583                 JUNCTION     1.14     2.12   508.63     3  15:59        2.12
  1585                 JUNCTION     1.19     2.21   508.04     3  16:01        2.21
  1587                 JUNCTION     1.22     2.18   507.22     3  16:03        2.17
  1589                 JUNCTION     1.20     2.22   506.12     3  16:06        2.20
  159                  JUNCTION     0.24     0.50   671.48     3  17:12        0.50
  1591                 JUNCTION     1.18     2.21   505.36     3  16:08        2.19
  1593                 JUNCTION     1.23     2.27   504.53     3  16:10        2.26
  1595                 JUNCTION     1.09     2.11   503.64     3  16:14        2.11
  1597                 JUNCTION     1.24     2.32   503.37     3  16:15        2.32
  1599                 JUNCTION     1.25     2.34   502.50     3  16:17        2.33
  1601                 JUNCTION     1.17     2.17   501.50     3  16:19        2.16
  1603                 JUNCTION     1.22     2.30   500.41     3  16:21        2.28
  1605                 JUNCTION     1.20     2.27   499.63     3  16:23        2.26
  1607                 JUNCTION     1.23     2.22   499.28     3  16:25        2.21
  1609                 JUNCTION     1.32     2.39   494.90     3  16:27        2.39
  161                  JUNCTION     0.16     0.33   670.31     3  17:12        0.33
  1611                 JUNCTION     1.17     2.27   493.54     3  16:31        2.27
  1613                 JUNCTION     1.22     2.39   492.77     3  16:35        2.38
  1615                 JUNCTION     1.42     2.58   491.58     3  16:37        2.56
  1617                 JUNCTION     0.58     1.03   488.89     3  16:39        1.02
  1621                 JUNCTION     1.46     9.08   566.47     3  20:10        9.06
  1622                 JUNCTION     2.23    12.33   565.02     3  20:03       12.31
  1624                 JUNCTION     4.50    17.36   552.00     3  14:43       17.36
  1626                 JUNCTION     2.01     8.15   542.21     3  18:32        8.11
  1628                 JUNCTION     1.87     7.71   541.36     3  18:08        7.68
  163                  JUNCTION     0.24     0.50   668.02     3  17:13        0.50
  1630                 JUNCTION     1.92     7.71   540.38     3  19:23        7.69
  1632                 JUNCTION     1.81     7.21   539.39     3  19:20        7.16
  1634                 JUNCTION     1.58     6.15   537.17     3  20:15        6.12
  1636                 JUNCTION     1.42     5.44   535.75     3  19:30        5.41
  1638                 JUNCTION     1.15     4.19   533.17     3  19:47        4.14
  1640                 JUNCTION     1.08     3.90   532.58     3  19:42        3.87
  1642                 JUNCTION     1.06     3.51   531.43     3  19:18        3.48
  1644                 JUNCTION     0.56     1.21   528.27     3  22:32        1.21
  1646                 JUNCTION     0.50     1.38   528.17     3  22:16        1.38
  1648                 JUNCTION     0.60     4.09   529.85     3  20:10        2.29
  165                  JUNCTION     0.19     0.39   665.75     3  17:15        0.39
  1650                 JUNCTION     0.67     4.01   528.93     3  20:10        2.95
  1652                 JUNCTION     0.76     3.98   528.08     3  20:10        3.59
  1654                 JUNCTION     0.74     4.11   527.87     3  20:10        3.87
  1656                 JUNCTION     0.87     4.72   527.59     3  20:10        4.62
  1658                 JUNCTION     0.89     5.13   527.50     3  20:10        5.07
  1660                 JUNCTION     1.08     5.61   527.47     3  20:11        5.54
  1662                 JUNCTION     1.09     5.63   527.46     3  20:10        5.55
  1664                 JUNCTION     1.12     5.69   527.45     3  20:10        5.61
  1666                 JUNCTION     1.24     6.47   527.25     3  20:10        6.44
  1668                 JUNCTION     1.36     7.30   527.09     3  21:16        7.26
  167                  JUNCTION     0.19     0.39   662.76     3  17:16        0.39
  1670                 JUNCTION     1.49     8.10   526.93     3  20:56        8.05
  1672                 JUNCTION     1.66     8.90   526.78     3  20:59        8.84
  1674                 JUNCTION     1.77     9.42   526.24     3  20:46        9.37
  1676                 JUNCTION     1.80     9.69   525.49     3  20:58        9.66
  1678                 JUNCTION     1.86     9.95   525.02     3  20:59        9.91
  1680                 JUNCTION     1.85     9.98   525.03     3  20:47        9.90
  1682                 JUNCTION     1.87     9.97   524.98     3  20:47        9.95
  1684                 JUNCTION     1.91    10.20   524.37     3  20:51       10.14
  1686                 JUNCTION     1.93    10.26   523.51     3  20:49       10.17
  1688                 JUNCTION     1.91    10.24   523.40     3  20:56       10.19
  169                  JUNCTION     0.22     0.46   660.05     3  17:17        0.46
  1690                 JUNCTION     1.92    10.26   522.62     3  20:56       10.22
  1692                 JUNCTION     1.92    10.31   521.89     3  21:15       10.25
  1694                 JUNCTION     1.95    10.38   521.18     3  21:15       10.32
  1696                 JUNCTION     1.95    10.40   520.28     3  21:15       10.34
  1698                 JUNCTION     1.95    10.43   519.39     3  20:55       10.39
  1700                 JUNCTION     1.97    10.49   518.41     3  20:55       10.44
  1702                 JUNCTION     1.97    10.48   518.11     3  20:55       10.43
  1704                 JUNCTION     1.96    10.25   516.50     3  20:55       10.21
  1706                 JUNCTION     1.82    10.15   515.63     3  20:12       10.08
  1708                 JUNCTION     1.96    10.52   515.39     3  20:12       10.46
  171                  JUNCTION     0.17     0.36   657.58     3  17:18        0.36
  1710                 JUNCTION     2.07    10.68   515.07     3  20:12       10.62
  1712                 JUNCTION     1.96    10.78   514.41     3  20:12       10.71
  1714                 JUNCTION     2.10    11.16   514.03     3  20:12       11.11
  1716                 JUNCTION     2.08    11.19   513.93     3  20:12       11.12
  1718                 JUNCTION     2.19    11.60   513.33     3  20:12       11.52
  1720                 JUNCTION     2.24    11.92   512.50     3  20:12       11.84
  1722                 JUNCTION     2.40    12.33   511.52     3  20:12       12.22
  1724                 JUNCTION     2.36    12.34   510.50     3  20:12       12.20
  1726                 JUNCTION     2.56    12.76   509.96     3  20:12       12.58
  1728                 JUNCTION     2.54    12.60   509.07     3  20:12       12.44
  173                  JUNCTION     0.28     0.58   653.13     3  17:21        0.58
  1730                 JUNCTION     2.55    12.50   508.17     3  20:12       12.29
  1732                 JUNCTION     2.52    12.20   507.16     3  20:12       12.01
  1734                 JUNCTION     2.48    11.91   506.19     3  20:12       11.70
  1736                 JUNCTION     2.44    11.58   505.16     3  20:12       11.39
  1738                 JUNCTION     2.36    11.01   503.56     3  20:12       10.82
  1740                 JUNCTION     2.29    10.51   502.17     3  20:12       10.31
  1742                 JUNCTION     2.24    10.08   500.95     3  20:12        9.91
  1744                 JUNCTION     2.21     9.85   500.38     3  20:12        9.72
  1746                 JUNCTION     2.16     9.54   499.59     3  20:12        9.39
  1748                 JUNCTION     2.12     9.28   498.90     3  20:12        9.15
  175                  JUNCTION     0.19     0.40   651.02     3  17:23        0.40
  1750                 JUNCTION     2.07     8.84   497.80     3  20:12        8.73
  1752                 JUNCTION     2.03     8.58   497.10     3  20:12        8.47
  1754                 JUNCTION     2.00     8.40   496.71     3  20:12        8.33
  1756                 JUNCTION     2.00     8.29   496.41     3  20:12        8.24
  1758                 JUNCTION     1.93     7.87   495.43     3  20:56        7.83
  1760                 JUNCTION     1.90     7.65   494.84     3  20:52        7.60
  1762                 JUNCTION     1.92     7.34   494.08     3  20:56        7.30
  1764                 JUNCTION     1.65     6.83   492.85     3  20:57        6.83
  1764-S1              JUNCTION     4.18     9.29   492.76     3  20:56        9.25
  1764-S2              JUNCTION     4.20     9.37   492.84     3  20:58        9.34
  1766                 JUNCTION     1.97     6.98   492.62     3  20:52        6.96
  1768                 JUNCTION     2.00     6.69   491.37     3  20:52        6.63
  177                  JUNCTION     0.23     0.54   648.36     3  17:00        0.54
  1770                 JUNCTION     1.95     6.34   490.59     3  20:56        6.30
  1772                 JUNCTION     1.91     6.13   490.13     3  20:55        6.07
  1774                 JUNCTION     1.84     5.71   489.22     3  21:03        5.68
  1776                 JUNCTION     1.78     5.32   488.35     3  21:36        5.27
  1778                 JUNCTION     1.71     4.91   487.45     3  20:37        4.83
  1780                 JUNCTION     1.66     4.62   486.85     3  21:33        4.59
  1782                 JUNCTION     1.58     4.11   485.81     3  21:36        4.05
  1784                 JUNCTION     1.54     3.88   485.35     3  20:37        3.81
  1786                 JUNCTION     1.47     3.43   484.48     3  20:40        3.38
  1788                 JUNCTION     1.42     3.16   483.94     3  21:37        3.10
  179                  JUNCTION     0.31     0.72   647.79     3  17:00        0.72
  1790                 JUNCTION     1.32     2.67   482.88     3  20:47        2.65
  1792                 JUNCTION     0.36     2.39   481.64     3  21:23        2.24
  1795                 JUNCTION   102.60   159.39   633.89     6  20:06      148.26
  1798                 JUNCTION     0.72     4.33   630.38     3  19:20        4.23
  1799                 JUNCTION     0.56     2.05   621.13     3  19:21        2.03
  18                   JUNCTION     0.37     1.03   621.17     3  18:29        1.03
  1801                 JUNCTION     0.72     2.94   614.79     3  19:24        2.83
  1803                 JUNCTION     0.66     2.49   609.76     3  20:08        2.47
  1805                 JUNCTION     0.93     3.68   606.11     3  20:08        3.67
  1807                 JUNCTION     0.80     3.09   604.82     3  20:10        3.08
  1809                 JUNCTION     0.66     2.32   599.78     3  22:01        2.30
  181                  JUNCTION     0.23     0.55   647.10     3  17:01        0.55
  1811                 JUNCTION     0.69     2.46   595.80     3  22:02        2.41
  1813                 JUNCTION     0.51     1.71   590.71     3  22:03        1.68
  1815                 JUNCTION     0.71     2.64   588.08     3  22:04        2.52
  1817                 JUNCTION     0.48     1.60   580.84     3  22:05        1.54
  1819                 JUNCTION     0.87     2.96   574.95     3  22:06        2.81
  1821                 JUNCTION     0.81     2.73   573.88     3  22:07        2.60
  1823                 JUNCTION     0.72     2.49   571.82     3  22:10        2.44
  1825                 JUNCTION     0.99     3.18   571.44     3  22:11        3.14
  1827                 JUNCTION     0.76     2.47   569.24     3  22:12        2.46
  1829                 JUNCTION     0.72     2.41   568.65     3  22:13        2.40
  183                  JUNCTION     0.18     0.41   646.07     3  17:02        0.41
  1831                 JUNCTION     0.86     2.87   567.85     3  22:15        2.87
  1833                 JUNCTION     1.46     3.26   566.30     3  20:48        3.23
  1833_WEIR            JUNCTION     5.29     6.01   569.05     3  17:33        6.01
  1835                 JUNCTION     1.01     2.97   565.25     3  20:49        2.91
  1837                 JUNCTION     0.96     2.81   563.41     3  20:52        2.77
  1839                 JUNCTION     0.96     2.82   562.24     3  20:54        2.80
  1841                 JUNCTION     1.00     2.88   560.50     3  20:56        2.87
  1843                 JUNCTION     0.96     2.82   560.14     3  20:56        2.81
  1845                 JUNCTION     1.03     2.87   559.73     3  20:56        2.86
  1847                 JUNCTION     0.53     1.49   557.75     3  20:57        1.48
  1847A                JUNCTION     0.50     1.39   557.65     3  20:56        1.38
  1848_A               JUNCTION     0.80     2.90   548.32     3  20:57        2.88
  1849A                JUNCTION     0.31     1.66   542.16     3  20:57        1.65
  185                  JUNCTION     0.19     0.45   644.81     3  17:02        0.45
  1851                 JUNCTION     0.36     2.17   540.78     3  20:57        2.16
  1854                 JUNCTION     0.08     0.33   540.84     3  15:50        0.33
  1855                 JUNCTION     0.09     0.38   538.65     3  15:50        0.38
  1857                 JUNCTION     0.06     0.25   538.01     3  15:50        0.25
  1859                 JUNCTION     0.13     0.33   534.03     3  15:50        0.33
  1861                 JUNCTION     0.16     0.42   528.31     3  15:50        0.42
  1863                 JUNCTION     0.09     0.24   526.24     3  15:50        0.24
  1865                 JUNCTION     0.15     0.39   521.07     3  15:50        0.39
  1867                 JUNCTION     0.14     0.36   519.54     3  15:50        0.36
  1869                 JUNCTION     0.17     0.46   518.67     3  15:51        0.46
  187                  JUNCTION     0.25     0.59   644.10     3  17:03        0.59
  1871                 JUNCTION     0.16     0.42   517.69     3  15:53        0.42
  1873                 JUNCTION     0.12     0.31   516.49     3  15:50        0.31
  1875                 JUNCTION     0.24     0.63   508.69     3  15:50        0.63
  1877                 JUNCTION     0.17     0.45   508.25     3  15:56        0.45
  1879                 JUNCTION     0.16     0.42   507.56     3  16:00        0.42
  1881                 JUNCTION     0.16     0.45   503.50     3  16:00        0.45
  1883                 JUNCTION     0.15     0.37   499.33     3  16:00        0.37
  1885                 JUNCTION     0.34     0.92   491.75     3  16:10        0.92
  1887                 JUNCTION     0.63     1.24   491.44     3  16:25        1.24
  1889                 JUNCTION     0.54     1.08   489.24     3  16:27        1.08
  189                  JUNCTION     0.32     0.74   643.36     3  17:06        0.74
  1891                 JUNCTION     0.35     0.68   487.95     3  16:28        0.68
  1893                 JUNCTION     1.43     2.00   483.87     3  17:24        2.00
  1895                 JUNCTION     3.07     5.38   485.58     4  04:40        3.81
  1897                 JUNCTION     3.40     5.71   485.57     3  21:28        4.10
  1899                 JUNCTION     4.01     5.87   485.11     3  21:28        4.57
  1901                 JUNCTION     5.53     6.03   483.73     4  07:24        5.98
  1903                 JUNCTION    88.65   893.94  1374.32     4  19:38      132.57
  1906                 JUNCTION     0.83     5.55   572.43     3  19:49        5.51
  1907                 JUNCTION     0.89     5.44   570.54     3  19:46        5.41
  1909                 JUNCTION     0.02     0.38   563.48     3  19:49        0.38
  191                  JUNCTION     0.22     0.51   641.88     3  17:09        0.51
  1911                 JUNCTION     0.02     0.28   561.98     3  19:50        0.28
  1913                 JUNCTION     0.05     0.40   559.55     3  19:53        0.40
  1915                 JUNCTION     0.06     0.42   556.42     3  19:59        0.42
  1917                 JUNCTION     0.06     0.38   553.43     3  20:05        0.37
  1919                 JUNCTION     0.06     0.37   551.50     3  20:09        0.37
  1921                 JUNCTION     0.08     0.37   549.77     3  20:13        0.36
  1923                 JUNCTION     0.08     0.37   548.61     3  20:14        0.37
  1925                 JUNCTION     0.07     0.35   546.95     3  20:18        0.35
  1927                 JUNCTION     0.08     0.35   544.04     3  20:22        0.35
  1929                 JUNCTION     0.11     0.40   541.11     3  20:28        0.40
  193                  JUNCTION     0.26     0.62   641.23     3  17:10        0.62
  1931                 JUNCTION     0.08     0.31   535.26     3  20:32        0.30
  1933                 JUNCTION     1.88     3.28   531.03     7  09:18        3.26
  1935                 JUNCTION    33.99   152.52   677.52     4  17:45      100.82
  1937                 JUNCTION     0.05     0.85   617.85     3  23:52        0.79
  1939                 JUNCTION     0.08     1.14   611.94     3  20:30        1.14
  1941                 JUNCTION     0.03     0.47   609.58     3  20:30        0.47
  1943                 JUNCTION     0.33     1.63   599.82     3  22:00        1.62
  1946                 JUNCTION     1.09     9.69   719.64     3  19:48        9.69
  1947                 JUNCTION     1.28     9.50   715.00     3  17:27        9.49
  1949                 JUNCTION     0.42     1.41   702.11     3  19:08        1.41
  195                  JUNCTION     0.22     0.52   640.42     3  17:11        0.52
  1951                 JUNCTION     0.51     1.71   692.69     3  20:59        1.71
  1953                 JUNCTION     0.60     2.11   689.89     3  21:04        2.11
  1955                 JUNCTION     0.27     0.85   683.77     3  21:04        0.85
  1957                 JUNCTION     0.76     2.42   671.32     3  20:02        2.42
  1959                 JUNCTION     0.55     1.82   669.92     3  20:03        1.82
  1961                 JUNCTION     0.62     1.86   669.68     3  20:03        1.86
  1963                 JUNCTION     0.54     1.73   669.53     3  20:04        1.73
  1965                 JUNCTION     0.54     1.71   669.15     3  20:04        1.71
  1967                 JUNCTION     0.65     2.21   668.75     3  20:05        2.21
  197                  JUNCTION     0.23     0.54   639.80     3  17:12        0.54
  1971                 JUNCTION     0.41     1.27   666.02     3  20:06        1.27
  1973                 JUNCTION     1.11     2.36   665.57     3  20:07        2.36
  1975                 JUNCTION     1.26     2.45   665.46     3  20:08        2.45
  1977                 JUNCTION     0.49     1.28   663.90     3  20:11        1.28
  1979                 JUNCTION     0.67     1.65   661.77     3  20:12        1.65
  1981                 JUNCTION     0.31     0.81   660.41     3  20:12        0.81
  1983                 JUNCTION     0.47     1.33   651.28     3  20:13        1.33
  1985                 JUNCTION     0.39     1.04   649.56     3  20:13        1.04
  1987                 JUNCTION     0.41     1.11   642.97     3  20:14        1.11
  1989                 JUNCTION     0.40     1.07   636.33     3  20:15        1.07
  199                  JUNCTION     0.20     0.46   638.78     3  17:12        0.46
  1991                 JUNCTION     0.42     1.12   629.78     3  20:15        1.12
  1993                 JUNCTION     0.58     1.57   626.20     3  20:10        1.57
  1995                 JUNCTION     0.71     1.82   625.75     3  20:10        1.82
  1997                 JUNCTION     0.56     1.51   624.76     3  20:10        1.51
  1999                 JUNCTION     0.41     1.14   622.64     3  20:10        1.14
  2001                 JUNCTION     0.50     1.45   603.20     3  20:11        1.45
  2003                 JUNCTION     0.47     1.33   587.33     3  20:11        1.33
  2005                 JUNCTION     0.50     1.42   584.92     3  20:11        1.42
  2007                 JUNCTION     0.48     1.41   583.41     3  21:34        1.38
  2009                 JUNCTION     0.65     3.71   582.31     3  20:37        3.49
  201                  JUNCTION     0.18     0.43   637.64     3  17:13        0.43
  2011                 JUNCTION     0.74     4.35   581.98     3  22:26        4.18
  2013                 JUNCTION     0.47     4.83   581.63     3  22:26        4.72
  2025                 JUNCTION    58.60   156.68   726.68     6  23:00       77.31
  2027                 JUNCTION     3.24     4.44   628.59     3  20:56        4.43
  203                  JUNCTION     0.23     0.53   635.47     3  17:15        0.53
  2030                 JUNCTION     1.36    11.00   722.00     3  18:41       11.00
  2033                 JUNCTION     1.11     9.82   720.35     3  21:15        9.77
  2036                 JUNCTION     0.00     0.00   675.30     0  00:00        0.00
  2037                 JUNCTION     0.00     0.00   675.00     0  00:00        0.00
  2039                 JUNCTION     0.08     0.10   674.49     0  00:41        0.10
  2041                 JUNCTION     0.10     0.11   673.55     2  18:01        0.11
  2043                 JUNCTION     0.08     0.09   672.56     0  01:42        0.09
  2045                 JUNCTION     0.08     0.10   671.64     0  02:03        0.10
  2048                 JUNCTION     0.09     0.11   670.72     0  02:30        0.11
  205                  JUNCTION     0.23     0.58   633.97     3  17:10        0.58
  2050                 JUNCTION     0.08     0.09   669.75     1  12:51        0.09
  2052                 JUNCTION     0.08     0.10   669.07     0  02:56        0.10
  2054                 JUNCTION     0.08     0.09   668.98     1  13:08        0.09
  2056                 JUNCTION     0.10     0.11   668.10     5  11:23        0.11
  2058                 JUNCTION     0.11     0.12   667.86     5  11:28        0.12
  2060                 JUNCTION     0.12     0.13   667.84     5  11:28        0.13
  2062                 JUNCTION     0.10     0.11   667.68     5  11:38        0.11
  2064                 JUNCTION     0.11     0.11   667.12     5  11:47        0.11
  2066                 JUNCTION     0.14     0.15   666.86     5  12:03        0.15
  2068                 JUNCTION     0.07     0.07   665.84     5  12:15        0.07
  207                  JUNCTION     0.22     0.55   631.63     3  17:10        0.55
  2070                 JUNCTION     0.07     0.07   649.06     5  12:16        0.07
  2072                 JUNCTION     0.07     0.08   647.56     1  12:18        0.08
  2074                 JUNCTION    50.92    98.02   725.23     3  20:14       88.26
  2076                 JUNCTION     1.93     9.43   685.75     3  17:24        6.90
  2078                 JUNCTION     0.15     0.90   672.30     3  21:45        0.90
  2080                 JUNCTION     0.19     1.14   656.34     3  21:45        1.14
  2082                 JUNCTION     0.24     1.50   649.67     3  21:12        1.49
  2084                 JUNCTION     0.23     1.39   644.39     3  21:15        1.39
  2086                 JUNCTION     0.25     1.50   640.50     3  21:15        1.50
  2088                 JUNCTION     0.17     0.93   636.80     3  21:16        0.93
  209                  JUNCTION     0.21     0.53   628.25     3  17:12        0.53
  2090                 JUNCTION     0.15     0.82   625.02     3  21:17        0.82
  2092                 JUNCTION     0.29     1.51   613.41     3  21:18        1.51
  2094                 JUNCTION     0.38     1.90   612.80     3  21:21        1.90
  2096                 JUNCTION     0.30     1.53   611.24     3  21:24        1.53
  2098                 JUNCTION     0.29     1.45   610.33     3  21:25        1.45
  2100                 JUNCTION     0.29     1.47   609.57     3  21:27        1.46
  2102                 JUNCTION     0.28     1.41   608.45     3  21:27        1.41
  2104                 JUNCTION     0.25     1.31   607.70     3  21:28        1.31
  2106                 JUNCTION     0.27     1.40   607.20     3  21:29        1.40
  2108                 JUNCTION     0.26     1.33   606.14     3  21:31        1.33
  211                  JUNCTION     0.23     0.58   625.12     3  17:15        0.58
  2110                 JUNCTION     0.26     1.30   604.91     3  21:31        1.30
  2112                 JUNCTION     0.44     1.73   604.31     3  21:32        1.72
  2114                 JUNCTION     0.32     1.48   603.54     3  21:35        1.47
  2116                 JUNCTION     0.36     1.54   603.36     3  21:37        1.54
  2118                 JUNCTION     0.31     1.49   578.96     3  21:39        1.48
  2119                 JUNCTION     0.21     0.93   578.00     3  21:39        0.93
  2121                 JUNCTION     0.22     0.97   575.88     3  21:40        0.96
  2123                 JUNCTION     0.24     1.06   570.52     3  21:40        1.05
  2125                 JUNCTION     0.26     1.16   566.76     3  21:41        1.15
  2127                 JUNCTION     0.62     2.07   561.40     3  21:41        2.06
  2129                 JUNCTION     0.54     1.88   561.05     3  21:41        1.87
  213                  JUNCTION     0.23     0.59   621.39     3  17:18        0.59
  2131                 JUNCTION    81.68   430.06   976.06     6  06:31      236.91
  2133                 JUNCTION    75.62   584.84  1134.88     6  06:31      508.61
  2137                 JUNCTION     0.41     2.32   540.82     3  20:58        2.31
  2139                 JUNCTION     0.37     3.84   534.34     4  05:24        3.46
  2141                 JUNCTION     0.42    13.95   532.17     4  05:29        7.91
  2143                 JUNCTION     0.49    13.14   531.18     4  05:19        8.52
  2146                 JUNCTION     0.92     1.45   556.39     3  21:20        1.45
  2149                 JUNCTION     0.32     1.35   591.41     3  21:39        1.35
  215                  JUNCTION     0.25     0.62   619.42     3  17:20        0.62
  2155                 JUNCTION     0.66     4.29   516.29     3  18:18        2.97
  2159                 JUNCTION     0.30     0.42   685.44     3  20:10        0.42
  2160                 JUNCTION     0.41     0.61   683.73     3  20:20        0.61
  2162                 JUNCTION     0.32     0.54   683.39     3  20:20        0.54
  2164                 JUNCTION     0.42     0.74   681.70     3  20:20        0.74
  2166                 JUNCTION     0.34     0.61   681.40     3  20:20        0.61
  2168                 JUNCTION     0.36     0.68   680.08     3  20:20        0.68
  217                  JUNCTION     0.23     0.56   618.12     3  17:21        0.56
  2170                 JUNCTION     0.59     1.20   679.20     3  20:22        1.20
  2172                 JUNCTION     0.48     0.93   677.71     3  20:28        0.93
  2174                 JUNCTION     0.40     0.80   677.33     3  20:30        0.80
  2176                 JUNCTION     0.24     0.47   674.10     3  20:31        0.47
  2178                 JUNCTION     0.29     0.57   669.70     3  20:31        0.57
  2180                 JUNCTION     0.51     1.01   668.32     3  20:32        1.01
  2182                 JUNCTION     0.33     0.64   667.16     3  20:34        0.64
  2184                 JUNCTION     0.46     0.92   665.86     3  20:35        0.92
  2186                 JUNCTION     0.38     0.75   664.92     3  20:36        0.75
  2188                 JUNCTION     0.47     0.93   664.26     3  19:57        0.93
  219                  JUNCTION     0.22     0.55   616.72     3  17:23        0.55
  2190                 JUNCTION     0.40     1.07   663.57     3  21:34        1.07
  2192                 JUNCTION     0.75     3.37   663.37     3  21:40        3.35
  2194                 JUNCTION     0.57     3.16   662.25     3  21:34        3.16
  2194_W               JUNCTION     0.00     0.00   659.09     0  00:00        0.00
  22                   JUNCTION     0.53     1.80   657.97     4  06:23        1.80
  221                  JUNCTION     0.49     1.10   615.93     3  17:26        1.10
  223                  JUNCTION     0.26     0.68   615.48     3  17:31        0.68
  225                  JUNCTION     0.21     0.47   612.57     3  17:20        0.47
  227                  JUNCTION     0.32     0.74   610.42     3  17:20        0.74
  229                  JUNCTION     0.27     0.61   607.10     3  17:21        0.61
  23001                JUNCTION     0.33     0.70   590.70     3  16:40        0.70
  23011                JUNCTION     0.52     1.08   588.58     3  16:50        1.08
  23021                JUNCTION     0.49     1.01   587.98     3  16:50        1.01
  23031                JUNCTION     0.50     1.03   587.43     3  16:50        1.03
  23041                JUNCTION     0.59     1.28   587.05     3  16:51        1.28
  23051                JUNCTION     0.76     1.53   586.80     3  16:52        1.53
  23061                JUNCTION     0.66     1.31   586.39     3  16:52        1.31
  23071                JUNCTION     0.37     0.88   585.73     3  16:53        0.88
  23081                JUNCTION     0.36     0.73   585.26     3  16:53        0.73
  23091                JUNCTION     0.51     1.12   584.99     3  16:53        1.12
  231                  JUNCTION     0.27     0.60   606.61     3  17:22        0.60
  23101                JUNCTION     0.71     1.41   584.92     3  16:54        1.41
  23111                JUNCTION     0.48     1.03   584.13     3  16:55        1.03
  23121                JUNCTION     0.76     1.62   583.92     3  16:56        1.62
  23131                JUNCTION     0.81     1.54   583.54     3  16:57        1.54
  23141                JUNCTION     0.46     0.94   582.78     3  16:57        0.94
  23151                JUNCTION     0.63     1.24   582.58     3  16:58        1.24
  23161A               JUNCTION     0.41     0.93   581.73     3  16:50        0.93
  23171                JUNCTION     0.51     1.12   581.70     3  16:50        1.12
  23181                JUNCTION     0.55     1.15   580.85     3  16:51        1.15
  23191                JUNCTION     0.34     0.77   580.32     3  16:51        0.77
  23201                JUNCTION     0.54     1.14   579.14     3  16:52        1.14
  23211                JUNCTION     0.51     1.14   578.64     3  16:53        1.14
  23221                JUNCTION     0.46     1.02   578.12     3  16:54        1.02
  23231                JUNCTION     0.20     0.43   577.06     3  16:55        0.43
  23241                JUNCTION     0.55     1.25   576.22     3  17:03        1.25
  23251                JUNCTION     0.53     1.19   575.82     3  17:04        1.19
  23261                JUNCTION     0.49     1.14   575.08     3  17:06        1.14
  23271                JUNCTION     0.34     0.81   574.23     3  17:00        0.81
  23281                JUNCTION     0.42     1.00   573.61     3  17:00        1.00
  23291                JUNCTION     0.47     1.11   572.94     3  17:00        1.11
  233                  JUNCTION     0.26     0.58   604.05     3  17:24        0.58
  23301                JUNCTION     0.43     1.03   572.22     3  17:00        1.03
  23311                JUNCTION     0.51     1.23   571.71     3  17:00        1.23
  23321                JUNCTION     0.52     1.28   570.58     3  17:01        1.28
  23331                JUNCTION     0.68     1.53   569.86     3  17:02        1.53
  23341                JUNCTION     0.37     0.87   568.77     3  17:03        0.87
  23351                JUNCTION     0.51     1.22   567.62     3  17:03        1.22
  23361                JUNCTION     0.45     1.09   566.87     3  17:04        1.09
  23371                JUNCTION     0.51     1.24   565.85     3  17:05        1.24
  23381                JUNCTION     0.45     1.08   564.51     3  17:05        1.08
  23391                JUNCTION     0.37     0.88   563.14     3  17:06        0.88
  23401                JUNCTION     0.62     1.49   562.49     3  17:07        1.49
  23411                JUNCTION     0.61     1.40   562.16     3  17:07        1.39
  23421                JUNCTION     0.37     0.89   561.37     3  17:07        0.89
  23431                JUNCTION     0.35     0.84   560.63     3  17:08        0.83
  23441                JUNCTION     0.55     1.33   560.29     3  17:09        1.33
  23451                JUNCTION     0.72     1.64   559.83     3  17:10        1.64
  23463                JUNCTION     0.50     1.27   558.87     3  17:10        1.27
  23471                JUNCTION     0.27     0.61   557.84     3  17:11        0.61
  23481                JUNCTION     0.58     1.40   556.63     3  17:11        1.40
  23491                JUNCTION     0.26     0.60   555.75     3  17:12        0.60
  235                  JUNCTION     0.29     0.63   601.39     3  17:26        0.63
  23501                JUNCTION     0.54     1.28   552.96     3  17:13        1.28
  23511                JUNCTION     0.73     1.73   550.63     3  17:23        1.73
  23521                JUNCTION     0.58     1.82   550.24     3  17:26        1.82
  23531                JUNCTION     0.89     2.30   550.17     3  17:27        2.30
  23541                JUNCTION     0.82     2.23   550.01     3  17:28        2.23
  23551                JUNCTION     1.06     2.39   549.67     3  17:30        2.39
  23561                JUNCTION     0.87     2.08   549.18     3  17:31        2.08
  23571                JUNCTION     0.88     2.08   548.98     3  17:32        2.08
  23581                JUNCTION     0.77     1.99   548.82     3  17:33        1.99
  23591                JUNCTION     1.02     2.22   548.74     3  17:33        2.22
  23601                JUNCTION     0.79     1.83   548.21     3  17:36        1.83
  23611                JUNCTION     0.79     1.78   547.85     3  17:37        1.78
  23621                JUNCTION     0.89     1.81   547.68     3  17:37        1.81
  23631                JUNCTION     0.54     1.22   546.81     3  17:44        1.22
  23641                JUNCTION     0.73     1.93   546.88     3  17:43        1.93
  23651                JUNCTION     1.00     2.29   546.76     3  17:46        2.29
  23661                JUNCTION     0.92     2.17   546.04     3  17:49        2.17
  23671                JUNCTION     0.95     2.20   545.50     3  17:52        2.20
  23681                JUNCTION     1.01     2.08   544.78     3  17:54        2.08
  23691                JUNCTION     0.68     1.40   543.71     3  17:55        1.40
  237                  JUNCTION     0.29     0.65   599.30     3  17:33        0.65
  23701                JUNCTION     0.54     1.15   543.45     3  17:55        1.15
  23711                JUNCTION     0.72     1.64   541.39     3  17:57        1.64
  23721                JUNCTION     0.80     1.72   541.22     3  17:50        1.72
  23731                JUNCTION     0.81     1.74   540.74     3  17:59        1.74
  23741                JUNCTION     0.82     1.71   540.08     3  18:10        1.71
  23751                JUNCTION     0.90     1.76   540.00     3  18:10        1.76
  23761                JUNCTION     0.77     1.58   539.76     3  18:20        1.58
  23771                JUNCTION     0.80     1.62   539.66     3  18:20        1.62
  23781                JUNCTION     0.70     1.42   538.17     3  18:21        1.42
  23791                JUNCTION     0.99     1.92   537.57     3  18:21        1.92
  23801                JUNCTION     0.79     1.60   536.98     3  18:20        1.60
  23811                JUNCTION     1.15     2.06   536.67     3  18:20        2.06
  23821A               JUNCTION     0.68     1.39   535.83     3  18:20        1.39
  23831                JUNCTION     0.71     2.14   534.99     3  15:36        1.89
  23841                JUNCTION     0.89     3.12   534.94     3  15:35        2.90
  23851                JUNCTION     1.11     3.76   534.88     3  15:34        3.53
  23861                JUNCTION     1.08     3.98   534.85     3  15:34        3.71
  23871                JUNCTION     1.31     4.32   534.83     3  15:34        4.04
  23881                JUNCTION     1.40     4.60   534.81     3  15:34        4.30
  23891                JUNCTION     1.89     5.13   534.78     3  15:34        4.84
  239                  JUNCTION     0.32     0.73   595.16     3  17:30        0.73
  23901                JUNCTION     2.67     5.93   534.74     3  15:34        5.67
  23911                JUNCTION     2.75     6.03   534.73     3  15:34        5.74
  23921                JUNCTION     3.40     6.70   534.69     3  15:34        6.44
  23931                JUNCTION     3.65     6.93   534.65     3  15:34        6.68
  23941                JUNCTION     3.83     7.11   534.60     3  15:34        6.85
  23951                JUNCTION     3.96     7.25   534.56     3  15:33        6.99
  23961                JUNCTION     4.31     7.63   534.56     3  15:34        7.37
  2397                 JUNCTION     4.71     8.04   534.54     3  15:33        7.78
  23981                JUNCTION     5.05     8.40   534.54     3  15:34        8.13
  2399                 JUNCTION     5.27     8.61   534.51     4  12:55        8.35
  2400                 JUNCTION     5.51     8.87   534.52     3  15:33        8.58
  24021                JUNCTION     0.34     0.73   580.43     3  16:50        0.73
  2403                 JUNCTION     5.61     8.95   534.49     4  12:55        8.70
  24031                JUNCTION     0.46     1.03   578.62     3  16:50        1.03
  24041                JUNCTION     0.49     1.74   577.89     3  17:40        1.73
  2405                 JUNCTION     0.50     2.65   577.75     3  17:40        2.63
  2406                 JUNCTION     0.70     3.25   577.65     3  17:36        3.21
  24071                JUNCTION     0.63     3.46   577.44     3  17:41        3.43
  24081                JUNCTION     0.67     4.61   577.12     3  17:34        4.54
  24091                JUNCTION     0.79     5.06   577.11     3  17:42        5.00
  2410                 JUNCTION     0.95     5.55   577.05     3  17:39        5.52
  24101                JUNCTION     0.80     5.32   577.05     3  17:41        5.27
  2411                 JUNCTION     0.54     1.18   570.90     3  17:40        1.18
  2412                 JUNCTION     0.47     1.03   569.60     3  17:43        1.03
  2413                 JUNCTION     0.59     1.28   568.46     3  17:44        1.28
  2414                 JUNCTION     0.42     0.90   567.12     3  17:46        0.90
  2415                 JUNCTION     0.45     0.98   566.05     3  17:46        0.98
  2416                 JUNCTION     0.49     1.06   564.99     3  17:47        1.06
  2417                 JUNCTION     0.44     0.95   563.72     3  17:48        0.95
  2418                 JUNCTION     0.41     0.89   562.50     3  17:49        0.89
  2419                 JUNCTION     0.56     1.20   561.62     3  17:51        1.20
  242                  JUNCTION     0.30     0.68   597.20     3  17:35        0.68
  2420                 JUNCTION     0.32     0.68   560.29     3  17:51        0.68
  2421                 JUNCTION     0.58     1.30   559.67     3  17:52        1.30
  2422                 JUNCTION     0.56     1.26   559.18     3  17:54        1.26
  2423                 JUNCTION     0.61     1.39   558.47     3  17:59        1.39
  2424                 JUNCTION     0.52     1.34   558.38     3  17:59        1.34
  2425                 JUNCTION     0.65     1.52   558.29     3  18:00        1.52
  2426                 JUNCTION     0.56     1.25   556.60     3  18:03        1.25
  2427                 JUNCTION     0.43     0.96   555.09     3  18:05        0.96
  2428                 JUNCTION     0.85     2.49   554.42     3  18:07        2.49
  2429                 JUNCTION     0.79     2.02   553.59     3  18:08        2.02
  2430                 JUNCTION     0.69     1.69   552.61     3  18:12        1.69
  2431                 JUNCTION     0.68     1.55   551.89     3  18:14        1.55
  2432                 JUNCTION     0.57     1.28   551.08     3  18:16        1.28
  2433                 JUNCTION     0.31     0.67   549.72     3  18:16        0.67
  2434                 JUNCTION     0.77     2.24   547.47     3  18:45        2.24
  2435                 JUNCTION     0.70     1.95   546.48     3  18:47        1.95
  2436                 JUNCTION     0.71     1.94   545.81     3  18:49        1.94
  2437                 JUNCTION     0.71     1.90   545.00     3  18:52        1.89
  2438                 JUNCTION     0.81     1.89   544.42     3  18:53        1.89
  2439                 JUNCTION     0.80     1.65   543.96     3  18:54        1.65
  244                  JUNCTION     0.73     1.40   555.50     3  19:31        1.40
  2440                 JUNCTION     0.43     0.96   543.06     3  18:55        0.96
  2441                 JUNCTION     0.34     0.73   540.61     3  18:56        0.73
  2442                 JUNCTION     0.38     0.82   540.04     3  18:56        0.82
  2443                 JUNCTION     0.49     1.19   539.94     3  18:28        1.19
  2444                 JUNCTION     0.80     1.69   539.82     3  18:20        1.69
  2445                 JUNCTION     0.61     1.41   539.35     3  18:21        1.41
  2446                 JUNCTION     0.67     1.54   539.07     3  18:23        1.54
  2447                 JUNCTION     0.73     1.60   538.72     3  18:25        1.60
  2448                 JUNCTION     0.98     1.69   538.40     3  18:28        1.69
  2449                 JUNCTION     0.93     1.63   538.37     3  18:28        1.63
  2450A                JUNCTION     0.49     0.88   537.38     3  18:39        0.88
  2451A                JUNCTION     0.53     0.96   535.16     3  18:40        0.96
  2452                 JUNCTION     0.42     0.99   534.73     3  15:37        0.87
  2453                 JUNCTION     0.64     1.62   534.66     3  15:36        1.47
  2454                 JUNCTION     0.97     1.97   534.61     3  15:35        1.80
  2455                 JUNCTION     1.19     2.17   534.57     3  15:34        1.94
  2456                 JUNCTION     2.01     3.03   534.59     3  15:35        2.75
  2457A                JUNCTION     2.27     3.27   534.57     3  15:35        3.01
  2458                 JUNCTION     2.14     4.16   534.58     3  15:36        3.84
  2460                 JUNCTION     0.46     0.85   537.35     3  18:41        0.85
  2461                 JUNCTION     0.47     0.84   537.29     3  18:46        0.84
  2462                 JUNCTION     0.51     0.88   537.28     3  18:46        0.88
  2467                 JUNCTION     0.36     0.70   537.08     3  18:56        0.70
  2468                 JUNCTION     0.56     0.92   536.80     3  19:08        0.92
  2469                 JUNCTION     0.54     1.01   534.81     3  15:35        0.99
  2470                 JUNCTION     2.08     4.87   534.52     4  12:56        4.60
  2471                 JUNCTION     0.62     3.67   536.47     4  12:40        1.87
  2473                 JUNCTION     0.84     1.66   539.87     3  18:20        1.66
  2475                 JUNCTION     0.58     1.20   574.80     3  17:07        1.20
  2477                 JUNCTION     1.38     1.96   622.37     4  06:06        1.96
  2479                 JUNCTION     0.10     0.34   671.75     3  16:31        0.34
  2481                 JUNCTION     0.10     0.34   671.60     3  16:40        0.34
  2483                 JUNCTION     0.10     0.34   671.50     3  16:40        0.34
  2485                 JUNCTION     0.10     0.34   670.73     3  16:42        0.34
  2487                 JUNCTION     0.10     0.35   669.94     3  16:45        0.35
  2489                 JUNCTION     0.09     0.32   669.11     3  16:51        0.32
  2491                 JUNCTION     0.09     0.31   667.95     3  16:53        0.31
  2493                 JUNCTION     0.09     0.31   666.80     3  16:58        0.31
  2495                 JUNCTION     0.09     0.31   665.65     3  17:02        0.31
  2497                 JUNCTION     0.09     0.32   664.46     3  17:04        0.32
  2499                 JUNCTION     0.08     0.28   664.06     3  17:07        0.28
  2501                 JUNCTION     0.10     0.35   662.04     3  17:10        0.35
  2503                 JUNCTION     0.07     0.25   660.75     3  17:14        0.25
  2505                 JUNCTION     0.08     0.28   658.54     3  17:16        0.28
  2507                 JUNCTION     0.07     0.26   656.72     3  17:18        0.26
  2509                 JUNCTION     0.07     0.26   654.22     3  17:21        0.26
  2511                 JUNCTION     0.07     0.26   651.72     3  17:24        0.26
  2513                 JUNCTION     0.09     0.31   649.37     3  17:27        0.31
  2515                 JUNCTION     0.07     0.24   647.95     3  17:29        0.24
  2517                 JUNCTION     0.05     0.18   642.89     3  17:34        0.18
  2519                 JUNCTION     0.08     0.27   645.48     3  17:31        0.27
  2521                 JUNCTION     0.05     0.18   633.27     3  17:34        0.18
  2523                 JUNCTION     0.05     0.18   622.67     3  17:36        0.18
  2525                 JUNCTION     0.05     0.17   610.24     3  17:37        0.17
  2527                 JUNCTION     0.05     0.19   597.79     3  17:39        0.19
  2529                 JUNCTION     0.07     0.23   590.43     3  17:41        0.23
  2531                 JUNCTION     0.07     0.24   586.84     3  17:43        0.24
  2533                 JUNCTION     0.05     0.19   583.19     3  17:44        0.19
  2535                 JUNCTION     0.05     0.19   574.29     3  17:46        0.19
  2537                 JUNCTION     0.08     0.28   563.48     3  17:52        0.28
  2539                 JUNCTION     0.08     0.28   565.48     3  17:49        0.28
  2541                 JUNCTION     0.05     0.18   561.38     3  17:54        0.18
  2543                 JUNCTION     0.08     0.26   550.96     3  17:56        0.26
  2545                 JUNCTION     0.30     0.69   549.48     3  17:05        0.69
  2547                 JUNCTION     0.70     1.86   589.86     3  19:32        1.86
  2549                 JUNCTION     0.16     0.24   544.18     3  17:53        0.24
  2551                 JUNCTION     0.23     0.34   542.15     3  18:00        0.34
  2553                 JUNCTION     0.27     0.39   535.96     3  18:00        0.39
  2555                 JUNCTION     0.27     0.40   534.71     3  18:02        0.40
  2557                 JUNCTION     0.34     0.50   532.53     3  18:05        0.50
  2559                 JUNCTION     0.31     0.45   529.55     3  18:10        0.45
  2561                 JUNCTION     0.32     0.48   526.88     3  18:11        0.48
  2563                 JUNCTION     0.32     0.47   524.25     3  18:13        0.47
  2565                 JUNCTION     0.33     0.48   521.59     3  18:15        0.48
  2567                 JUNCTION     0.29     0.43   518.98     3  18:16        0.43
  2569                 JUNCTION     0.27     0.41   516.83     3  18:17        0.41
  2571                 JUNCTION     0.29     0.43   513.10     3  18:18        0.43
  2573                 JUNCTION     0.26     0.39   507.06     3  18:20        0.39
  2575                 JUNCTION     0.03     0.03   645.41     3  12:15        0.03
  2577                 JUNCTION     0.00     0.00   673.95     0  00:00        0.00
  2579                 JUNCTION     0.00     0.00   675.00     0  00:00        0.00
  2581                 JUNCTION     0.00     0.00   685.43     0  00:00        0.00
[...]
  2075                      191.60    191.66    205.45      0.01         0.01
  2077                        0.01      3.82      0.01      4.30         0.01
  2128                        0.01      0.01      0.01      6.82         0.01
  2132                      196.52    196.57    196.71     51.99        56.95
  2134                        0.42      0.42    193.99      0.03         0.01
  2135                      198.45    198.45    210.04      0.01         0.01
  2140                        0.01      0.01      0.18      0.17         0.01
  2142                        0.30      0.32      0.32      0.29         0.19
  2144                        0.29      0.33      0.29     12.44         0.25
  2153                        0.01     10.11      0.01     23.24         0.01
  2191                        0.01      0.01      5.77      0.01         0.01
  2193                        6.31      6.47      6.31      8.41         6.31
  2195                        6.31      6.31     31.53      0.01         0.01
  222                         0.01      0.01      0.01      7.32         0.01
  22L1                        0.01      0.01    200.16      0.01         0.01
  2354                        0.01      0.01      0.01      5.32         0.01
  2356                        0.01      0.01      0.01     10.64         0.01
  2358                        0.01      0.01      0.01      3.97         0.01
  2360                        0.01      0.01      0.01     11.03         0.01
  2382                        0.01      0.01      0.01     10.09         0.01
  2385                        0.01      0.01      0.94      0.01         0.01
  2386                        0.94      0.94      2.75      0.01         0.01
  2387                        0.01      0.01      1.26      0.01         0.01
  2388                        1.26      1.26      3.42      0.01         0.01
  2389                        3.42      3.42     10.26      0.01         0.01
  2390                       10.26     10.26     20.13      0.01         0.01
  2391                       20.13     20.13     20.97      0.01         0.08
  2392                       20.76     20.97     20.81     17.30        12.55
  2393                       28.30     28.30     32.08      0.01         0.01
  2394                       32.08     32.08     38.15      1.02         1.04
  2395                       38.15     38.15     45.30      0.04         1.13
  2396                       45.30     45.30    178.37      0.01         0.01
  2397                      178.37    178.37    188.05      0.01         0.01
  2398                      188.04    188.04    190.27      0.01         0.01
  2399                      190.27    190.27    191.49      0.01         0.01
  2400                      191.49    191.49    192.71      0.01         0.01
  2401                      192.71    192.71    193.24      0.01         0.38
  2403L1                    192.94    192.94    193.24     16.84         0.06
  2405                        0.01      0.01      1.56      0.01         0.01
  24061                       1.56      1.56      2.83      0.01         0.01
  24071                       2.83      2.83      3.59      0.01         0.01
  24081                       3.59      3.59      8.99      0.01         0.01
  24101                      10.62     10.62     11.80      0.01         0.01
  2428                        0.01      0.01      4.52      0.01         0.01
  2429                        0.65      4.52      0.65     13.72         0.65
  2430                        0.01      0.65      0.01      9.97         0.01
  2431                        0.01      0.01      0.01      3.36         0.01
  2432                        0.01      0.01      0.01      0.39         0.01
  2434                        0.01      0.01      1.60      0.01         0.01
  2435                        0.01      1.60      0.01      8.45         0.01
  2436                        0.01      0.01      0.01      3.15         0.01
  2437                        0.01      0.01      0.01      4.30         0.01
  2438                        0.01      0.01      0.01      3.30         0.01
  2439                        0.01      0.01      0.01     13.63         0.01
  2440                        0.01      0.01      0.01     12.51         0.01
  2445                        0.01      0.01      0.01      9.53         0.01
  2450                        0.01      0.01      0.01     10.45         0.01
  2456                        0.01      0.01     21.54      0.01         0.01
  2457                       21.54     21.54     57.08      0.01         0.01
  2459                        0.01      0.01    181.97      0.01         0.01
  2461                        0.01      0.01      0.01      2.51         0.01
  2463                        0.01     16.48      0.01     17.69         0.01
  2467                        0.01      0.01      0.01     41.27         0.01
  2469                        0.01      0.01      0.01    207.34         0.01
  2470                       14.55     14.55    214.01      0.01         0.01
  2471                        0.01      0.01     14.55      0.01         0.01
  2472                       19.23     19.23    214.01      0.01         0.01
  2480                        0.01      0.01    113.93      0.01         0.01
  2482                        5.15      5.15     15.58     47.16         0.18
  2508                        3.34      3.34      5.56      0.01         0.01
  2512                        6.75      6.75      7.74      0.01         0.01
  29                          0.01      0.01      0.01      5.82         0.01
  3478                      209.94    209.94    210.01      0.01         0.01
  409                         0.01      0.01    205.35      0.01         0.01
  411                       205.35    205.35    205.35      0.01        87.65
  413                         0.01      0.01    205.07      0.01         0.01
  5130                        0.01      0.01     33.60      0.01         0.01
  5174                        0.01      0.82      0.01     11.47         0.01
  5176                        1.30      1.30    210.20      0.01         0.01
  5178                      210.20    210.20    210.20     78.84       107.65
  5180                        0.01      0.01    209.51      0.01         0.01
  5190                        0.01      0.01      0.01      0.75         0.01
  5192                        0.01     47.72      0.01     43.34         0.01
  5202                        0.01      0.01      6.17      0.01         0.01
  5204                        0.01      0.01      7.23      9.30         0.01
  5212                        0.01      0.01      1.38      0.01         0.01
  5214                        1.30      1.38      1.31      7.29         1.30
  5300                       10.81     10.81     19.03     81.10         0.01
  5302                        5.28     10.81      5.28     13.48         5.28
  5304                       15.82     15.82    211.20      0.01         0.01
  5306                        9.22      9.22    201.06      0.01         0.01
  5308                        5.96      5.96      6.00      9.02         0.01
  5310                        7.93      7.97      7.96     17.98         4.78
  5312                      214.99    214.99    215.00      0.01         0.01
  5314                        0.01      0.01    137.29      0.01         0.01
  5316                        3.63      3.63    215.00      0.01         0.01
  576                         0.01      0.01      0.01      7.14         0.01
  703                         0.01      0.01    214.51      0.01         0.01
  705                         0.01      0.01    200.48      0.01         0.01
  734                         2.87      2.87    113.37      0.01         0.01
  736                        57.52     57.55    124.72      0.01         0.08
  738                       202.88    202.94    205.67      0.24        62.20
  740                         0.01      0.01    201.76     39.47         0.01
  742                         0.01      0.01      2.75      0.01         0.01
  745                         2.80      2.80      4.32      0.01         0.01
  747                         4.32      4.32      7.31      0.01         0.01
  749                         3.89      7.55      3.89     13.43         3.89
  751                         3.80      3.96      3.80      7.28         3.80
  753                         3.58      3.80      3.58     10.69         3.58
  755                         3.62      3.62      5.31      0.01         0.01
  757                         5.20      5.32      5.20     10.25         5.20
  759                         4.89      5.20      4.89     11.16         4.89
  761                         4.93      4.93      5.59      0.01         0.01
  763                         5.61      5.61      7.21      0.01         0.01
  765                         5.88      7.32      5.88     20.19         5.88
  767                         5.92      5.92      6.26      0.01         0.26
  769                         6.32      6.32      7.16      0.01         0.01
  771                         7.16      7.16      7.62      0.01         0.01
  773                         7.62      7.62      8.66      0.01         0.01
  775                         9.03      9.03      9.58      8.33         8.32
  777                         9.55      9.55      9.74     10.40         9.54
  779                         9.74      9.74     10.55      7.92         7.88
  781                        10.55     10.55     11.27      9.43         9.42
  783                         8.02     11.27      8.02     18.52         8.02
  785                         0.01      8.02      0.01     13.43         0.01
  787                         0.01      4.46      0.01      8.55         0.01
  789                         6.13      6.18      6.15      8.52         6.11
  791                         5.96      6.15      5.96     87.95         5.95
  792                         0.01      0.01    208.49      0.01         0.01
  807                         0.01      0.01      0.01      6.59         0.01
  807B                        0.01      0.01      0.01     41.05         0.01
  829                         0.01      0.01      1.23      0.01         0.01
  831                         1.23      1.23      2.72      0.01         0.01
  833                         2.72      2.72      3.43      0.01         0.01
  835                         3.43      3.43      3.52      4.03         2.64
  837                         3.52      3.52      4.20      0.01         0.01
  839                         4.20      4.20      4.37      3.72         2.74
  841                         4.16      4.16      5.15      0.01         0.01
  843                         5.15      5.15      5.43      0.83         0.88
  845                         5.43      5.43      6.06      0.01         0.01
  847                         6.06      6.06      6.74      0.01         0.01
  849                         6.74      6.74      7.52      0.01         0.01
  851                         7.97     10.77      7.97     14.88         7.97
  946                       207.89    207.89    215.00      0.01         0.63
  947L1                       0.01      0.01    204.67      0.01         0.01
  948                         0.01      0.01    204.40      0.01         0.01
  CHAPARRAL1_L1             188.17    188.22    211.42      0.01         0.74
  CHAPARRAL2_L1               0.01      0.01    202.72      0.01         0.01
  CHAPARRAL_L2              188.23    188.23    203.12      0.01         0.01
  P-1521                      0.18      0.19     56.47      0.01         0.01
  P-2134                      0.01      0.01     72.01      0.01         0.01
  ROWLETT11_L1                0.01      0.01    207.91      0.01         0.01
  ROWLETT12_L1              208.17    208.17    208.17     33.66        52.90
  ROWLETT13_L1                0.01      0.01    208.17      0.01         0.01
  WC_JUNC_L1                193.42    193.42    195.75      0.01         0.11
  
  
  ***************
  Pumping Summary
  ***************
  
  ---------------------------------------------------------------------------------------------------------
                                                  Min       Avg       Max     Total     Power    % Time Off
                        Percent   Number of      Flow      Flow      Flow    Volume     Usage    Pump Curve
  Pump                 Utilized   Start-Ups       MGD       MGD       MGD  10^6 gal     Kw-hr    Low   High
  ---------------------------------------------------------------------------------------------------------
  5000                     0.00           0      0.00      0.00      0.00     0.000      0.00    0.0    0.0
  5000B                   32.49         791      0.00      6.42     18.09    19.450   8204.92    0.0    0.0
  5000C                   14.31         106      0.00     12.11     12.11    15.521     70.65    0.0  100.0
  NORTH_MCKINNEY           0.00           0      0.00      0.00      0.00     0.000      0.00    0.0    0.0
  PC_PMP-2074C             0.00           0      0.00      0.00      0.00     0.000      0.00    0.0    0.0
  PMP-1103A               46.98         416      0.00      2.56      2.59    10.832   2518.38    0.0   91.1
  PMP-1103B               14.06         104      0.00      6.87      8.64     8.675   2144.10    0.0    0.8
  PMP-1103C                6.21          77      0.00      7.56      7.63     4.208   1051.76    0.0   88.2
  PMP-1103D                3.08          41      0.00     21.33     23.62     5.874   1547.59    0.0    2.4
  PMP-1469                30.92          89      0.00      6.19      6.23    17.155   4108.80    0.0   81.7
  PMP-1469B                6.18           5      0.00      6.13      6.23     3.394    863.38    0.0   33.1
  PMP-1469C                1.87           4      0.00      5.95      6.23     0.998    261.47    0.0    0.8
  PMP-1469D                5.50           2      0.00      8.64      8.64     4.260     37.59    0.0  100.0
  PMP-1469E               10.01           2      0.00      8.64      8.64     7.745     73.24    0.0  100.0
  PMP-1469F                0.18           2      0.00     17.95     23.04     0.284     92.71    0.0    2.5
  PMP-1469G                0.15           3      0.00     17.74     19.21     0.246     82.35    0.0    0.0
  PMP-1521                14.98         955      0.00     13.92     16.42    18.688   2854.30    0.0   14.1
  PMP-1521B                0.10           5      0.00      5.48      6.52     0.049     10.14    0.0    0.0
  PMP-1521C                0.10           5      0.00     21.27     21.60     0.199     42.39    0.0   86.0
  PMP-1521D                4.42         556      0.00      6.14     15.12     2.402    376.74    0.0    5.2
  PMP-1795A               58.71         690      0.00     10.03     10.08    52.769  17413.19    0.0   95.9
  PMP-1795B               19.05          74      0.00      9.84     10.08    16.883   6238.56    0.0   80.0
  PMP-1795C                3.68          24      0.00      9.79     10.08     3.229   1294.19    0.0   23.2
  PMP-1795D                0.04           4      0.00      8.44      8.56     0.033     13.56    0.0    0.0
  PMP-1903                 0.00           0      0.00      0.00      0.00     0.000      0.00    0.0    0.0
  PMP-1903B                0.00           0      0.00      0.00      0.00     0.000      0.00    0.0    0.0
  PMP-1903C                0.00           0      0.00      0.00      0.00     0.000      0.00    0.0    0.0
  PMP-1903D               27.21        1892      0.00      4.59      5.22    10.924   3327.92    0.0    0.5
  PMP-1935B                0.00           0      0.00      0.00      0.00     0.000      0.00    0.0    0.0
  PMP-1935C                0.00           0      0.00      0.00      0.00     0.000      0.00    0.0    0.0
  PMP-1935D                0.00           0      0.00      0.00      0.00     0.000      0.00    0.0    0.0
  PMP-1935_A               0.55           9      0.00      5.66      5.89     0.281     83.74    0.0    0.0
  PMP-2074A                7.33          53      0.00      4.47      4.68     2.953    489.47    0.0   70.6
  PMP-2074B                2.09          12      0.00      4.94      5.27     0.926    182.50    0.0    0.0
  PMP-2131A               22.76         337      0.00      6.27      7.66    13.022   3586.43    0.0    1.2
  PMP-2131B                6.88          29      0.00      5.70      7.66     3.511   1053.63    0.0    0.0
  PMP-2131C                2.65          34      0.00      6.53      6.64     1.549    493.49    0.0    0.0
  PMP-5002A               44.16        1427      0.00      1.94      2.30     8.098    696.55    0.0   57.0
  PMP-5002B               14.00          16      0.00      1.58      1.59     1.974    511.83    0.0    0.0
  PMP-5008                18.23         195      0.00      6.43      7.92    10.614   2193.29    0.0    1.0
  PMP-5008B                9.21          24      0.00      5.22      7.20     4.322    931.37    0.0    0.2
  PMP-5008C                3.10          54      0.00      7.68      7.83     2.133    490.31    0.0    0.0
  PMP-5008D                0.00           0      0.00      0.00      0.00     0.000      0.00    0.0    0.0
  PMP-5008E                0.00           0      0.00      0.00      0.00     0.000      0.00    0.0    0.0
  PMP-5009A               28.39         381      0.00      7.70     15.54    19.926   3425.13    0.0    0.0
  PMP-5009B                8.31          28      0.00      7.11      8.85     5.346    935.01    0.0    0.0
  PMP-5009C                0.95           7      0.00     23.89     23.90     2.034    415.45    0.0   99.5
  PMP-704A                26.03          71      0.00     10.04     10.08    23.443   7316.00    0.0   98.3
  PMP-704B                71.19         540      0.00     10.06     10.08    64.208  19148.06    0.0   98.9
  PMP-704C                 5.76         121      0.00     14.94     15.84     7.727   2581.67    0.0   19.4
  PMP-704D                 0.02           1      0.00     13.85     16.17     0.028     10.08    0.0    0.0
  PMP-706                  0.00           0      0.00      0.00      0.00     0.000      0.00    0.0    0.0
  PMP-708                 11.73         749      0.00      4.38      7.49     4.455   2438.74    0.0    1.0
  PMP-737A                18.94         314      0.00      9.21     16.25    15.604   5148.17    0.0    0.6
  PMP-737B                 0.00           0      0.00      0.00      0.00     0.000      0.00    0.0    0.0
  PMP-741                 14.81         285      0.00      5.20      5.40     6.866   2982.17    0.0    0.0
  PMP-852A                36.20        1389      0.00      2.09      3.24     6.910   3428.10    0.0    0.0
  PMP-852B                10.10          17      0.00      1.87      2.02     1.698    894.97    0.0    0.0
  PMP-852C                 6.50          18      0.00      3.33      5.18     1.988    896.53    0.0    0.1
  PMP-852D                 4.15           7      0.00      2.84      4.35     1.068    538.42    0.0    0.0
  PMP-852E                 3.31           1      0.00      2.65      3.31     0.785    411.16    0.0    0.0
  PMP-852F                 2.87           1      0.00      2.59      2.62     0.666    351.36    0.0    0.0
  TRIAL1                  12.07          23      0.00     10.08     10.08    10.894   1095.31    0.0  100.0
  TRIAL2                   0.00           0      0.00      0.00      0.00     0.000      0.00    0.0    0.0
  TRIAL_4                  0.00           0      0.00      0.00      0.00     0.000      0.00    0.0    0.0
  WILSONCREEK             11.52           3      0.00     20.10     20.10    20.741   1288.54    0.0  100.0
  

  Analysis begun on:  Wed Jan 02 05:15:57 2019
  Analysis ended on:  Wed Jan 02 08:22:39 2019
  Total elapsed time: 03:06:42