
  EPA STORM WATER MANAGEMENT MODEL - VERSION 5.1 (Build 5.1.012)
  --------------------------------------------------------------

  prueba 
  
  
  *********************************************************
  NOTE: The summary statistics displayed in this report are
  based on results found at every computational time step,  
  not just on results from each reporting time step.
  *********************************************************
  
  ****************
  Analysis Options
  ****************
  Flow Units ............... LPS
  Process Models:
    Rainfall/Runoff ........ YES
    RDII ................... NO
    Snowmelt ............... NO
    Groundwater ............ NO
    Flow Routing ........... YES
    Ponding Allowed ........ NO
    Water Quality .......... NO
  Infiltration Method ...... CURVE_NUMBER
  Flow Routing Method ...... DYNWAVE
  Starting Date ............ 05/25/2011 00:00:00
  Ending Date .............. 05/25/2011 03:00:00
  Antecedent Dry Days ...... 0.0
  Report Time Step ......... 00:01:00
  Wet Time Step ............ 00:01:00
  Dry Time Step ............ 00:01:00
  Routing Time Step ........ 0.10 sec
  Variable Time Step ....... NO
  Maximum Trials ........... 8
  Number of Threads ........ 1
  Head Tolerance ........... 0.001524 m
  
  
  **************************        Volume         Depth
  Runoff Quantity Continuity     hectare-m            mm
  **************************     ---------       -------
  Total Precipitation ......         0.113        22.440
  Evaporation Loss .........         0.000         0.000
  Infiltration Loss ........         0.000         0.000
  Surface Runoff ...........         0.110        21.697
  Final Storage ............         0.004         0.754
  Continuity Error (%) .....        -0.049
  
  
  **************************        Volume        Volume
  Flow Routing Continuity        hectare-m      10^6 ltr
  **************************     ---------     ---------
  Dry Weather Inflow .......         0.000         0.000
  Wet Weather Inflow .......         0.109         1.095
  Groundwater Inflow .......         0.000         0.000
  RDII Inflow ..............         0.000         0.000
  External Inflow ..........         0.000         0.000
  External Outflow .........         0.107         1.074
  Flooding Loss ............         0.000         0.000
  Evaporation Loss .........         0.000         0.000
  Exfiltration Loss ........         0.000         0.000
  Initial Stored Volume ....         0.000         0.000
  Final Stored Volume ......         0.002         0.023
  Continuity Error (%) .....        -0.164
  
  
  ********************************
  Highest Flow Instability Indexes
  ********************************
  All links are stable.
  
  
  *************************
  Routing Time Step Summary
  *************************
  Minimum Time Step           :     0.10 sec
  Average Time Step           :     0.10 sec
  Maximum Time Step           :     0.10 sec
  Percent in Steady State     :    -0.00
  Average Iterations per Step :     2.00
  Percent Not Converging      :     0.01
  
  
  ***************************
  Subcatchment Runoff Summary
  ***************************
  
  --------------------------------------------------------------------------------------------------------
                            Total      Total      Total      Total      Total       Total     Peak  Runoff
                           Precip      Runon       Evap      Infil     Runoff      Runoff   Runoff   Coeff
  Subcatchment                 mm         mm         mm         mm         mm    10^6 ltr      LPS
  --------------------------------------------------------------------------------------------------------
  C-1                       22.44       0.00       0.00       0.00      21.46        0.05    22.65   0.956
  C-2                       22.44       0.00       0.00       0.00      21.88        0.05    28.27   0.975
  C-3                       22.44       0.00       0.00       0.00      22.22        0.03    20.49   0.990
  C-4                       22.44       0.00       0.00       0.00      21.85        0.05    28.88   0.973
  C-5                       22.44       0.00       0.00       0.00      21.98        0.04    26.61   0.979
  C-6                       22.44       0.00       0.00       0.00      22.12        0.03    23.56   0.986
  C-7                       22.44       0.00       0.00       0.00      21.70        0.06    31.10   0.967
  C-8                       22.44       0.00       0.00       0.00      21.58        0.07    32.47   0.962
  C-9                       22.44       0.00       0.00       0.00      21.85        0.05    28.78   0.974
  C-10                      22.44       0.00       0.00       0.00      21.60        0.07    32.28   0.963
  C-11                      22.44       0.00       0.00       0.00      21.16        0.09    36.92   0.943
  C-12                      22.44       0.00       0.00       0.00      21.87        0.05    28.48   0.975
  C-13                      22.44       0.00       0.00       0.00      22.20        0.03    21.37   0.989
  C-14                      22.44       0.00       0.00       0.00      22.11        0.03    23.62   0.985
  C-15                      22.44       0.00       0.00       0.00      22.32        0.02    16.55   0.995
  C-16                      22.44       0.00       0.00       0.00      22.12        0.03    23.54   0.986
  C-17                      22.44       0.00       0.00       0.00      21.84        0.05    28.93   0.973
  C-18                      22.44       0.00       0.00       0.00      22.28        0.02    18.37   0.993
  C-19                      22.44       0.00       0.00       0.00      21.77        0.06    30.01   0.970
  C-20                      22.44       0.00       0.00       0.00      21.67        0.06    31.43   0.966
  C-21                      22.44       0.00       0.00       0.00      21.83        0.05    29.08   0.973
  C-22                      22.44       0.00       0.00       0.00      20.93        0.10    38.93   0.933
  
  
  ******************
  Node Depth Summary
  ******************
  
  ---------------------------------------------------------------------------------
                                 Average  Maximum  Maximum  Time of Max    Reported
                                   Depth    Depth      HGL   Occurrence   Max Depth
  Node                 Type       Meters   Meters   Meters  days hr:min      Meters
  ---------------------------------------------------------------------------------
  1                    JUNCTION     0.05     0.16   237.11     0  00:30        0.16
  2                    JUNCTION     0.04     0.12   237.57     0  00:28        0.12
  3                    JUNCTION     0.04     0.13   237.92     0  00:24        0.13
  4                    JUNCTION     0.02     0.09   237.83     0  00:24        0.09
  5                    JUNCTION     0.04     0.12   237.12     0  00:26        0.12
  6                    JUNCTION     0.04     0.14   236.91     0  00:25        0.14
  7                    JUNCTION     0.04     0.13   236.57     0  00:29        0.13
  8                    JUNCTION     0.05     0.17   236.12     0  00:28        0.17
  9                    JUNCTION     0.03     0.07   239.07     0  00:26        0.07
  10                   JUNCTION     0.05     0.15   236.19     0  00:32        0.15
  11                   JUNCTION     0.07     0.21   235.86     0  00:32        0.21
  12                   JUNCTION     0.07     0.20   235.49     0  00:35        0.20
  13                   JUNCTION     0.08     0.23   234.93     0  00:33        0.23
  14                   JUNCTION     0.05     0.14   235.02     0  00:25        0.14
  15                   JUNCTION     0.04     0.13   234.62     0  00:29        0.13
  16                   JUNCTION     0.10     0.28   234.28     0  00:33        0.28
  17                   JUNCTION     0.05     0.17   234.10     0  00:26        0.17
  18                   JUNCTION     0.05     0.15   233.78     0  00:31        0.15
  19                   JUNCTION     0.10     0.29   233.54     0  00:33        0.29
  21                   JUNCTION     0.00     0.00   237.40     0  00:00        0.00
  22                   JUNCTION     0.04     0.12   237.51     0  00:24        0.12
  23                   JUNCTION     0.02     0.08   236.68     0  00:26        0.08
  24                   JUNCTION     0.04     0.11   237.09     0  00:25        0.11
  25                   JUNCTION     0.03     0.10   236.16     0  00:27        0.10
  26                   JUNCTION     0.06     0.21   234.81     0  00:28        0.21
  27                   JUNCTION     0.05     0.14   235.86     0  00:25        0.14
  28                   JUNCTION     0.03     0.09   235.45     0  00:26        0.09
  29                   JUNCTION     0.07     0.23   234.61     0  00:29        0.23
  30                   JUNCTION     0.00     0.00   235.80     0  00:00        0.00
  31                   JUNCTION     0.03     0.10   238.34     0  00:23        0.09
  32                   JUNCTION     0.02     0.08   237.55     0  00:25        0.08
  33                   JUNCTION     0.03     0.10   235.79     0  00:26        0.10
  35                   JUNCTION     0.41     1.17   232.57     0  00:57        1.16
  36                   JUNCTION     0.29     0.88   232.58     0  00:56        0.88
  37                   JUNCTION     0.10     0.31   232.85     0  00:33        0.31
  38                   JUNCTION     0.08     0.34   232.57     0  00:55        0.34
  39                   JUNCTION     0.06     0.15   232.85     0  00:29        0.15
  40                   JUNCTION     0.06     0.14   233.22     0  00:28        0.14
  41                   JUNCTION     0.18     1.71   233.58     0  00:50        0.71
  42                   JUNCTION     0.04     0.12   232.58     0  00:26        0.12
  43                   JUNCTION     0.03     0.10   233.71     0  00:25        0.10
  44                   JUNCTION     0.02     0.08   234.60     0  00:25        0.08
  45                   JUNCTION     0.03     0.11   235.11     0  00:23        0.11
  46                   JUNCTION     0.02     0.08   235.24     0  00:25        0.08
  47                   JUNCTION     0.04     0.13   235.53     0  00:23        0.13
  48                   JUNCTION     0.02     0.07   235.08     0  00:23        0.07
  49                   JUNCTION     0.08     0.26   234.22     0  00:30        0.26
  50                   JUNCTION     0.00     0.00   235.42     0  00:00        0.00
  51                   JUNCTION     0.08     0.24   234.41     0  00:30        0.24
  52                   JUNCTION     0.00     0.00   238.04     0  00:00        0.00
  53                   JUNCTION     0.09     0.28   234.00     0  00:31        0.28
  54                   JUNCTION     0.08     0.24   233.52     0  00:32        0.24
  55                   JUNCTION     0.04     0.12   237.34     0  00:24        0.12
  34                   JUNCTION     0.53     2.50   233.66     0  00:44        1.41
  D-22                 OUTFALL      0.19     0.33   230.63     0  00:54        0.33
  
  
  *******************
  Node Inflow Summary
  *******************
  
  -------------------------------------------------------------------------------------------------
                                  Maximum  Maximum                  Lateral       Total        Flow
                                  Lateral    Total  Time of Max      Inflow      Inflow     Balance
                                   Inflow   Inflow   Occurrence      Volume      Volume       Error
  Node                 Type           LPS      LPS  days hr:min    10^6 ltr    10^6 ltr     Percent
  -------------------------------------------------------------------------------------------------
  1                    JUNCTION      0.00    49.32     0  00:27           0      0.0982       0.361
  2                    JUNCTION      0.00    28.29     0  00:25           0      0.0493       0.329
  3                    JUNCTION     28.27    28.27     0  00:24      0.0492      0.0492      -0.041
  4                    JUNCTION     20.49    20.49     0  00:23       0.026       0.026      -0.254
  5                    JUNCTION      0.00    48.67     0  00:24           0      0.0777       0.291
  6                    JUNCTION     28.78    28.78     0  00:24      0.0513      0.0513      -0.068
  7                    JUNCTION      0.00    28.81     0  00:26           0      0.0513       0.683
  8                    JUNCTION     32.47   104.74     0  00:27      0.0667       0.195       0.065
  9                    JUNCTION     22.65    22.65     0  00:26      0.0491      0.0491      -0.030
  10                   JUNCTION      0.00    48.06     0  00:30           0      0.0979       0.579
  11                   JUNCTION     32.28    75.75     0  00:31      0.0658       0.163       0.077
  12                   JUNCTION      0.00    75.72     0  00:32           0       0.163       0.611
  13                   JUNCTION      0.00   165.56     0  00:32           0       0.357       0.210
  14                   JUNCTION     30.01    30.01     0  00:25      0.0559      0.0559      -0.055
  15                   JUNCTION      0.00    30.00     0  00:26           0       0.056       0.517
  16                   JUNCTION     36.92   243.02     0  00:32      0.0891       0.535       0.192
  17                   JUNCTION     31.43    31.43     0  00:25      0.0619      0.0619      -0.102
  18                   JUNCTION      0.00    31.73     0  00:27           0      0.0619       0.827
  19                   JUNCTION      0.00   288.20     0  00:32           0        0.63       0.202
  21                   JUNCTION      0.00     0.00     0  00:00           0           0       0.000 ltr
  22                   JUNCTION     26.61    26.61     0  00:24      0.0433      0.0433       0.023
  23                   JUNCTION      0.00    26.41     0  00:25           0      0.0433       0.225
  24                   JUNCTION     31.10    31.10     0  00:25      0.0604      0.0604       0.031
  25                   JUNCTION      0.00    31.21     0  00:25           0      0.0604       0.212
  26                   JUNCTION      0.00    78.63     0  00:27           0       0.137       0.241
  27                   JUNCTION     28.48    28.48     0  00:24      0.0501      0.0501       0.106
  28                   JUNCTION      0.00    28.36     0  00:25           0        0.05       0.114
  29                   JUNCTION      0.00   104.17     0  00:28           0       0.187       0.253
  30                   JUNCTION      0.00     0.00     0  00:00           0           0       0.000 ltr
  31                   JUNCTION     23.56    23.56     0  00:23       0.034       0.034      -0.037
  32                   JUNCTION      0.00    23.68     0  00:23           0       0.034       0.058
  33                   JUNCTION      0.00    48.53     0  00:26           0      0.0772       0.133
  35                   JUNCTION      0.00   507.57     0  00:33           0        1.09       0.574
  36                   JUNCTION      0.00   479.70     0  00:33           0       0.989      -0.099
  37                   JUNCTION      0.00   445.81     0  00:33           0       0.933       0.107
  38                   JUNCTION      0.00    67.20     0  00:43           0       0.107      -0.566
  39                   JUNCTION      0.00    38.88     0  00:28           0         0.1       0.192
  40                   JUNCTION     38.93    38.93     0  00:28       0.101       0.101       0.101
  41                   JUNCTION      0.00    57.97     0  00:38           0      0.0574       0.505
  42                   JUNCTION      0.00    29.00     0  00:25           0      0.0527      -0.160
  43                   JUNCTION     29.08    29.08     0  00:25      0.0524      0.0524      -0.025
  44                   JUNCTION      0.00    23.57     0  00:24           0      0.0339      -0.229
  45                   JUNCTION     23.54    23.54     0  00:23      0.0339      0.0339      -0.005
  46                   JUNCTION      0.00    23.57     0  00:24           0      0.0341      -0.116
  47                   JUNCTION     23.62    23.62     0  00:23      0.0341      0.0341       0.022
  48                   JUNCTION     16.55    16.55     0  00:22      0.0179      0.0179      -0.683
  49                   JUNCTION     18.37   138.11     0  00:29      0.0216       0.254       0.201
  50                   JUNCTION      0.00     0.00     0  00:00           0           0       0.000 ltr
  51                   JUNCTION     21.37   118.57     0  00:29      0.0281       0.215       0.189
  52                   JUNCTION      0.00     0.00     0  00:00           0           0       0.000 ltr
  53                   JUNCTION     28.93   161.05     0  00:30      0.0519       0.305       0.090
  54                   JUNCTION      0.00   160.63     0  00:31           0       0.305       0.185
  55                   JUNCTION     28.88    28.88     0  00:24      0.0517      0.0517       0.027
  34                   JUNCTION      0.00   420.66     0  00:35           0        1.08       0.543
  D-22                 OUTFALL       0.00   209.02     0  00:54           0        1.07       0.000
  
  
  **********************
  Node Surcharge Summary
  **********************
  
  Surcharging occurs when water rises above the top of the highest conduit.
  ---------------------------------------------------------------------
                                               Max. Height   Min. Depth
                                   Hours       Above Crown    Below Rim
  Node                 Type      Surcharged         Meters       Meters
  ---------------------------------------------------------------------
  41                   JUNCTION        0.34          1.110        0.000
  34                   JUNCTION        0.50          1.300        0.000
  
  
  *********************
  Node Flooding Summary
  *********************
  
  Flooding refers to all water that overflows a node, whether it ponds or not.
  --------------------------------------------------------------------------
                                                             Total   Maximum
                                 Maximum   Time of Max       Flood    Ponded
                        Hours       Rate    Occurrence      Volume     Depth
  Node                 Flooded       LPS   days hr:min    10^6 ltr    Meters
  --------------------------------------------------------------------------
  41                      0.01     10.11      0  00:50       0.000     0.000
  34                      0.01     97.13      0  00:44       0.000     0.000
  
  
  ***********************
  Outfall Loading Summary
  ***********************
  
  -----------------------------------------------------------
                         Flow       Avg       Max       Total
                         Freq      Flow      Flow      Volume
  Outfall Node           Pcnt       LPS       LPS    10^6 ltr
  -----------------------------------------------------------
  D-22                  89.69    110.84    209.02       1.074
  -----------------------------------------------------------
  System                89.69    110.84    209.02       1.074
  
  
  ********************
  Link Flow Summary
  ********************
  
  -----------------------------------------------------------------------------
                                 Maximum  Time of Max   Maximum    Max/    Max/
                                  |Flow|   Occurrence   |Veloc|    Full    Full
  Link                 Type          LPS  days hr:min     m/sec    Flow   Depth
  -----------------------------------------------------------------------------
  L-1                  CONDUIT     26.89     0  00:28      0.71    0.21    0.35
  L-2                  CONDUIT     28.29     0  00:25      0.88    0.23    0.32
  L-3                  CONDUIT     19.79     0  00:24      0.82    0.12    0.26
  L-4                  CONDUIT     28.81     0  00:26      0.84    0.26    0.33
  L-5                  CONDUIT     27.17     0  00:29      0.64    0.22    0.37
  L-6                  CONDUIT     22.62     0  00:26      1.06    0.07    0.28
  L-7                  CONDUIT     48.06     0  00:30      1.13    0.31    0.38
  L-8                  CONDUIT     47.19     0  00:32      0.75    0.19    0.36
  L-9                  CONDUIT     75.72     0  00:32      1.01    0.37    0.41
  L-10                 CONDUIT     73.94     0  00:35      0.92    0.34    0.43
  L-11                 CONDUIT     30.00     0  00:26      0.87    0.26    0.34
  L-12                 CONDUIT     28.42     0  00:29      0.46    0.23    0.51
  L-13                 CONDUIT     31.73     0  00:27      0.76    0.34    0.38
  L-14                 CONDUIT     29.37     0  00:31      0.43    0.29    0.54
  L-15                 CONDUIT      0.00     0  00:00      0.00    0.00    0.15
  L-16                 CONDUIT     26.41     0  00:25      1.14    0.17    0.24
  L-17                 CONDUIT     31.21     0  00:25      1.20    0.17    0.27
  L-18                 CONDUIT     30.61     0  00:27      0.76    0.13    0.38
  L-19                 CONDUIT     28.36     0  00:25      0.96    0.25    0.29
  L-20                 CONDUIT     28.02     0  00:26      0.78    0.11    0.39
  L-21                 CONDUIT      0.00     0  00:00      0.00    0.00    0.28
  L-22                 CONDUIT     23.68     0  00:23      1.19    0.12    0.22
  L-23                 CONDUIT     22.71     0  00:25      1.08    0.10    0.23
  L-24                 CONDUIT    420.66     0  00:35      1.08    0.24    0.99
  L-25                 CONDUIT    469.31     0  00:33      1.32    0.27    0.84
  L-26                 CONDUIT    445.14     0  00:33      2.48    0.52    0.74
  L-27                 CONDUIT    287.31     0  00:33      2.06    0.46    0.50
  L-28                 CONDUIT    242.30     0  00:33      2.09    0.62    0.57
  L-29                 CONDUIT    164.47     0  00:33      1.62    0.43    0.51
  L-30                 CONDUIT    103.94     0  00:28      1.93    0.38    0.49
  L-31                 CONDUIT     45.98     0  01:05      0.53    0.03    0.67
  L-32                 CONDUIT     38.89     0  00:29      1.19    0.27    0.54
  L-33                 CONDUIT     38.88     0  00:28      0.97    0.27    0.36
  L-34                 CONDUIT     43.47     0  00:45      0.41    0.10    1.00
  L-35                 CONDUIT     29.34     0  00:26      1.03    0.18    0.64
  L-36                 CONDUIT     29.00     0  00:25      1.15    0.14    0.27
  L-37                 CONDUIT     23.03     0  00:25      0.67    0.09    0.45
  L-38                 CONDUIT     23.57     0  00:24      1.08    0.15    0.23
  L-39                 CONDUIT     22.95     0  00:25      0.59    0.09    0.45
  L-40                 CONDUIT     23.57     0  00:24      0.92    0.21    0.26
  L-41                 CONDUIT     16.13     0  00:23      0.56    0.07    0.39
  L-42                 CONDUIT      0.00     0  00:00      0.00    0.00    0.31
  L-43                 CONDUIT      0.00     0  00:00      0.00    0.00    0.09
  L-44                 CONDUIT     25.96     0  00:26      1.26    0.08    0.22
  L-45                 CONDUIT     48.08     0  00:26      1.14    0.14    0.39
  L-46                 CONDUIT     76.82     0  00:28      0.94    0.36    0.44
  L-47                 CONDUIT    103.07     0  00:29      1.01    0.31    0.39
  L-48                 CONDUIT    117.03     0  00:30      1.05    0.35    0.42
  L-49                 CONDUIT    136.36     0  00:31      1.12    0.39    0.45
  L-50                 CONDUIT    160.63     0  00:31      1.39    0.43    0.43
  L-51                 CONDUIT    158.63     0  00:32      1.26    0.34    0.46
  L-52                 CONDUIT     46.61     0  00:26      1.18    0.19    0.36
  L-53                 CONDUIT     28.93     0  00:24      1.00    0.20    0.30
  L-54                 CONDUIT    209.02     0  00:54      1.74    1.53    0.91
  
  
  ***************************
  Flow Classification Summary
  ***************************
  
  -------------------------------------------------------------------------------------
                      Adjusted    ---------- Fraction of Time in Flow Class ---------- 
                       /Actual         Up    Down  Sub   Sup   Up    Down  Norm  Inlet 
  Conduit               Length    Dry  Dry   Dry   Crit  Crit  Crit  Crit  Ltd   Ctrl  
  -------------------------------------------------------------------------------------
  L-1                     1.00   0.01  0.00  0.00  0.99  0.00  0.00  0.00  0.93  0.00
  L-2                     1.00   0.01  0.00  0.00  0.93  0.06  0.00  0.00  0.83  0.00
  L-3                     1.00   0.01  0.00  0.00  0.91  0.08  0.00  0.00  0.89  0.00
  L-4                     1.00   0.01  0.00  0.00  0.94  0.05  0.00  0.00  0.77  0.00
  L-5                     1.00   0.01  0.01  0.00  0.99  0.00  0.00  0.00  0.99  0.00
  L-6                     1.00   0.01  0.00  0.00  0.86  0.13  0.00  0.00  0.92  0.00
  L-7                     1.00   0.01  0.00  0.00  0.74  0.25  0.00  0.00  0.80  0.00
  L-8                     1.00   0.01  0.02  0.00  0.98  0.00  0.00  0.00  0.98  0.00
  L-9                     1.00   0.01  0.00  0.00  0.89  0.10  0.00  0.00  0.79  0.00
  L-10                    1.00   0.01  0.00  0.00  0.99  0.00  0.00  0.00  0.98  0.00
  L-11                    1.00   0.01  0.00  0.00  0.93  0.06  0.00  0.00  0.77  0.00
  L-12                    1.00   0.01  0.01  0.00  0.99  0.00  0.00  0.00  0.99  0.00
  L-13                    1.00   0.01  0.00  0.00  0.97  0.03  0.00  0.00  0.80  0.00
  L-14                    1.00   0.01  0.00  0.00  0.99  0.00  0.00  0.00  0.98  0.00
  L-15                    1.00   0.01  0.99  0.00  0.00  0.00  0.00  0.00  0.00  0.00
  L-16                    1.00   0.01  0.00  0.00  0.08  0.92  0.00  0.00  0.00  0.00
  L-17                    1.00   0.01  0.00  0.00  0.01  0.98  0.00  0.00  0.00  0.00
  L-18                    1.00   0.01  0.00  0.00  0.93  0.06  0.00  0.00  0.92  0.00
  L-19                    1.00   0.01  0.00  0.00  0.76  0.24  0.00  0.00  0.00  0.00
  L-20                    1.00   0.01  0.00  0.00  0.91  0.08  0.00  0.00  0.91  0.00
  L-21                    1.00   0.01  0.99  0.00  0.00  0.00  0.00  0.00  0.00  0.00
  L-22                    1.00   0.01  0.00  0.00  0.13  0.86  0.00  0.00  0.07  0.00
  L-23                    1.00   0.01  0.00  0.00  0.65  0.34  0.00  0.00  0.89  0.00
  L-24                    1.00   0.03  0.00  0.00  0.94  0.03  0.00  0.00  0.38  0.00
  L-25                    1.00   0.03  0.00  0.00  0.96  0.02  0.00  0.00  0.44  0.00
  L-26                    1.00   0.02  0.00  0.00  0.37  0.61  0.00  0.00  0.90  0.00
  L-27                    1.00   0.01  0.00  0.00  0.03  0.96  0.00  0.00  0.83  0.00
  L-28                    1.00   0.01  0.00  0.00  0.01  0.98  0.00  0.00  0.82  0.00
  L-29                    1.00   0.01  0.00  0.00  0.08  0.91  0.00  0.00  0.99  0.00
  L-30                    1.00   0.01  0.00  0.00  0.50  0.49  0.00  0.00  0.86  0.00
  L-31                    1.00   0.02  0.00  0.00  0.93  0.04  0.00  0.00  0.69  0.00
  L-32                    1.00   0.01  0.00  0.00  0.29  0.70  0.00  0.00  0.20  0.00
  L-33                    1.00   0.01  0.00  0.00  0.91  0.09  0.00  0.00  0.86  0.00
  L-34                    1.00   0.02  0.00  0.00  0.96  0.02  0.00  0.00  0.50  0.00
  L-35                    1.00   0.01  0.00  0.00  0.88  0.11  0.00  0.00  0.38  0.00
  L-36                    1.00   0.01  0.00  0.00  0.55  0.44  0.00  0.00  0.87  0.00
  L-37                    1.00   0.01  0.00  0.00  0.92  0.06  0.00  0.00  0.93  0.00
  L-38                    1.00   0.01  0.00  0.00  0.45  0.54  0.00  0.00  0.00  0.00
  L-39                    1.00   0.01  0.01  0.00  0.99  0.00  0.00  0.00  0.99  0.00
  L-40                    1.00   0.01  0.00  0.00  0.81  0.18  0.00  0.00  0.00  0.00
  L-41                    1.00   0.01  0.00  0.00  0.95  0.04  0.00  0.00  0.96  0.00
  L-42                    1.00   0.01  0.99  0.00  0.00  0.00  0.00  0.00  0.00  0.00
  L-43                    1.00   0.01  0.99  0.00  0.00  0.00  0.00  0.00  0.00  0.00
  L-44                    1.00   0.01  0.00  0.00  0.01  0.98  0.00  0.00  0.93  0.00
  L-45                    1.00   0.02  0.00  0.00  0.85  0.13  0.00  0.00  0.93  0.00
  L-46                    1.00   0.02  0.00  0.00  0.98  0.00  0.00  0.00  0.85  0.00
  L-47                    1.00   0.01  0.02  0.00  0.97  0.00  0.00  0.00  0.92  0.00
  L-48                    1.00   0.01  0.00  0.00  0.99  0.00  0.00  0.00  0.96  0.00
  L-49                    1.00   0.01  0.00  0.00  0.99  0.00  0.00  0.00  0.92  0.00
  L-50                    1.00   0.01  0.00  0.00  0.85  0.14  0.00  0.00  0.00  0.00
  L-51                    1.00   0.01  0.00  0.00  0.93  0.06  0.00  0.00  0.86  0.00
  L-52                    1.00   0.01  0.00  0.00  0.79  0.20  0.00  0.00  0.99  0.00
  L-53                    1.00   0.01  0.00  0.00  0.80  0.20  0.00  0.00  0.00  0.00
  L-54                    1.00   0.04  0.00  0.00  0.95  0.01  0.00  0.00  0.00  0.00
  
  
  *************************
  Conduit Surcharge Summary
  *************************
  
  ----------------------------------------------------------------------------
                                                           Hours        Hours 
                         --------- Hours Full --------   Above Full   Capacity
  Conduit                Both Ends  Upstream  Dnstream   Normal Flow   Limited
  ----------------------------------------------------------------------------
  L-24                        0.01      0.01      0.50      0.01         0.01
  L-26                        0.01      0.01      0.62      0.01         0.01
  L-31                        0.01      0.01      0.44      0.01         0.01
  L-34                        0.34      0.34      0.62      0.01         0.01
  L-35                        0.01      0.01      0.66      0.01         0.01
  L-54                        0.01      1.41      0.01      1.44         0.01
  

  Analysis begun on:  Wed Jan 02 08:22:39 2019
  Analysis ended on:  Wed Jan 02 08:22:46 2019
  Total elapsed time: 00:00:07