
  EPA STORM WATER MANAGEMENT MODEL - VERSION 5.1 (Build 5.1.012)
  --------------------------------------------------------------

  
  *********************************************************
  NOTE: The summary statistics displayed in this report are
  based on results found at every computational time step,  
  not just on results from each reporting time step.
  *********************************************************
  
  ****************
  Analysis Options
  ****************
  Flow Units ............... GPM
  Process Models:
    Rainfall/Runoff ........ YES
    RDII ................... NO
    Snowmelt ............... NO
    Groundwater ............ NO
    Flow Routing ........... YES
    Ponding Allowed ........ NO
    Water Quality .......... NO
  Infiltration Method ...... CURVE_NUMBER
  Flow Routing Method ...... DYNWAVE
  Starting Date ............ 06/16/2010 00:00:00
  Ending Date .............. 06/17/2010 00:00:00
  Antecedent Dry Days ...... 0.0
  Report Time Step ......... 00:05:00
  Wet Time Step ............ 00:05:00
  Dry Time Step ............ 01:00:00
  Routing Time Step ........ 30.00 sec
  Variable Time Step ....... YES
  Maximum Trials ........... 8
  Number of Threads ........ 1
  Head Tolerance ........... 0.005000 ft
  
  
  **************************        Volume         Depth
  Runoff Quantity Continuity     acre-feet        inches
  **************************     ---------       -------
  Total Precipitation ......         0.277         2.340
  Evaporation Loss .........         0.000         0.000
  Infiltration Loss ........         0.000         0.000
  Surface Runoff ...........         0.276         2.331
  Final Storage ............         0.002         0.015
  Continuity Error (%) .....        -0.283
  
  
  **************************        Volume        Volume
  Flow Routing Continuity        acre-feet      10^6 gal
  **************************     ---------     ---------
  Dry Weather Inflow .......         0.494         0.161
  Wet Weather Inflow .......         0.276         0.090
  Groundwater Inflow .......         0.000         0.000
  RDII Inflow ..............         0.000         0.000
  External Inflow ..........         0.000         0.000
  External Outflow .........         0.651         0.212
  Flooding Loss ............         0.117         0.038
  Evaporation Loss .........         0.000         0.000
  Exfiltration Loss ........         0.000         0.000
  Initial Stored Volume ....         0.000         0.000
  Final Stored Volume ......         0.002         0.001
  Continuity Error (%) .....        -0.106
  
  
  ***************************
  Time-Step Critical Elements
  ***************************
  Link C04 (75.54%)
  Link C03 (8.51%)
  Link C011 (7.60%)
  
  
  ********************************
  Highest Flow Instability Indexes
  ********************************
  Link C04 (2)
  Link C08 (1)
  Link C011 (1)
  
  
  *************************
  Routing Time Step Summary
  *************************
  Minimum Time Step           :     1.09 sec
  Average Time Step           :     6.62 sec
  Maximum Time Step           :    30.00 sec
  Percent in Steady State     :     0.00
  Average Iterations per Step :     2.26
  Percent Not Converging      :     2.52
  
  
  ***************************
  Subcatchment Runoff Summary
  ***************************
  
  --------------------------------------------------------------------------------------------------------
                            Total      Total      Total      Total      Total       Total     Peak  Runoff
                           Precip      Runon       Evap      Infil     Runoff      Runoff   Runoff   Coeff
  Subcatchment                 in         in         in         in         in    10^6 gal      GPM
  --------------------------------------------------------------------------------------------------------
  RDP6                       2.34       0.00       0.00       0.00       2.31        0.03  1850.61   0.987
  RDP5                       2.34       0.00       0.00       0.00       2.35        0.00    82.41   1.003
  RDP4                       2.34       0.00       0.00       0.00       2.35        0.02  1213.60   1.003
  RDP3C                      2.34       0.00       0.00       0.00       2.34        0.00   116.83   1.002
  RDP3B                      2.34       0.00       0.00       0.00       2.35        0.00    71.58   1.003
  RDP3A                      2.34       0.00       0.00       0.00       2.35        0.00   137.38   1.002
  RDP2A                      2.34       0.00       0.00       0.00       2.35        0.00   197.25   1.002
  RDP2                       2.34       0.00       0.00       0.00       2.35        0.02  1262.64   1.003
  RDP3                       2.34       0.00       0.00       0.00       2.31        0.01   319.68   0.986
  RDP1                       2.34       0.00       0.00       0.00       2.35        0.00    70.97   1.003
  
  
  ******************
  Node Depth Summary
  ******************
  
  ---------------------------------------------------------------------------------
                                 Average  Maximum  Maximum  Time of Max    Reported
                                   Depth    Depth      HGL   Occurrence   Max Depth
  Node                 Type         Feet     Feet     Feet  days hr:min        Feet
  ---------------------------------------------------------------------------------
  J04                  JUNCTION     0.23     0.83   606.27     0  18:26        0.83
  J05                  JUNCTION     0.45     4.05   611.40     0  18:15        1.99
  J06                  JUNCTION     0.55     4.51   612.90     0  18:15        3.07
  J07                  JUNCTION     0.51     4.76   615.00     0  18:15        3.22
  J08                  JUNCTION     0.52     5.74   617.30     0  18:15        3.34
  J09                  JUNCTION     0.53     4.53   620.11     0  18:15        3.64
  J010                 JUNCTION     0.54     3.84   621.90     0  18:15        3.84
  J011                 JUNCTION     0.51     4.18   623.70     0  18:14        3.71
  J012                 JUNCTION     0.54     3.91   627.12     0  18:15        3.78
  J013                 JUNCTION     0.45     4.27   630.15     0  18:13        3.04
  J014                 JUNCTION     0.47     3.05   630.40     0  18:12        3.05
  J015                 JUNCTION     0.57     6.08   637.46     0  18:13        4.39
  J016                 JUNCTION     0.44     3.36   638.24     0  18:13        3.36
  J03                  JUNCTION     0.36     1.36   606.05     0  18:21        1.34
  J02                  JUNCTION     0.29     0.83   604.40     0  18:26        0.83
  J017                 JUNCTION     0.64     6.75   644.33     0  18:16        6.71
  J018                 JUNCTION     0.56     6.83   648.63     0  18:16        6.77
  J019                 JUNCTION     0.50     6.19   650.34     0  18:17        6.13
  J020                 JUNCTION     0.47     5.66   653.17     0  18:17        5.56
  J021                 JUNCTION     0.50     5.81   654.54     0  18:16        5.81
  J022                 JUNCTION     0.37     5.22   659.26     0  18:16        4.65
  J023                 JUNCTION     0.38     4.78   662.13     0  18:17        4.78
  J024                 JUNCTION     0.17     0.88   665.62     0  18:22        0.82
  J025                 JUNCTION     0.19     0.84   666.53     0  18:21        0.78
  J026                 JUNCTION     0.22     2.19   668.90     0  18:20        2.05
  J027                 JUNCTION     0.20     2.80   671.42     0  18:21        1.04
  J028                 JUNCTION     0.20     3.14   673.16     0  18:21        1.04
  J01                  OUTFALL      0.29     0.85   603.15     0  18:26        0.85
  
  
  *******************
  Node Inflow Summary
  *******************
  
  -------------------------------------------------------------------------------------------------
                                  Maximum  Maximum                  Lateral       Total        Flow
                                  Lateral    Total  Time of Max      Inflow      Inflow     Balance
                                   Inflow   Inflow   Occurrence      Volume      Volume       Error
  Node                 Type           GPM      GPM  days hr:min    10^6 gal    10^6 gal     Percent
  -------------------------------------------------------------------------------------------------
  J04                  JUNCTION      0.00  1791.75     0  18:26           0       0.212       0.009
  J05                  JUNCTION      0.00  1791.75     0  18:26           0       0.212       0.007
  J06                  JUNCTION      0.00  1791.75     0  18:26           0       0.212       0.018
  J07                  JUNCTION      0.92  1804.41     0  18:15    0.000499       0.212       0.007
  J08                  JUNCTION      0.00  1954.34     0  18:15           0       0.212      -0.010
  J09                  JUNCTION      2.72  2029.62     0  18:14     0.00148       0.212       0.024
  J010                 JUNCTION      0.00  2016.73     0  18:14           0        0.21       0.022
  J011                 JUNCTION     73.95  2131.22     0  18:14     0.00477        0.21      -0.012
  J012                 JUNCTION      2.10  2163.26     0  18:13     0.00114       0.206       0.037
  J013                 JUNCTION      0.00  2244.89     0  18:13           0       0.205       0.001
  J014                 JUNCTION   1271.80  3107.48     0  18:20      0.0324       0.222       0.014
  J015                 JUNCTION      0.00  1873.51     0  18:13           0       0.189       0.018
  J016                 JUNCTION    344.79  2731.95     0  18:20      0.0354         0.2      -0.024
  J03                  JUNCTION      0.00  1792.28     0  18:27           0       0.212       0.009
  J02                  JUNCTION      0.00  1791.66     0  18:26           0       0.212       0.012
  J017                 JUNCTION      0.00  2387.07     0  18:20           0       0.165       0.059
  J018                 JUNCTION    198.80  2386.91     0  18:20      0.0052       0.165       0.004
  J019                 JUNCTION    143.33  2231.55     0  18:28     0.00947        0.16       0.001
  J020                 JUNCTION      0.00  2166.91     0  18:28           0        0.15       0.006
  J021                 JUNCTION     73.84  2480.18     0  18:20     0.00393       0.155       0.018
  J022                 JUNCTION      0.00  2406.34     0  18:21           0       0.151       0.006
  J023                 JUNCTION   1236.21  3200.94     0  18:22      0.0477       0.156       0.012
  J024                 JUNCTION    120.51  2052.34     0  18:21     0.00641       0.109       0.016
  J025                 JUNCTION      0.00  1975.54     0  18:21           0       0.102       0.010
  J026                 JUNCTION      0.00  1970.65     0  18:21           0       0.102       0.001
  J027                 JUNCTION      0.00  1962.80     0  18:20           0       0.102      -0.002
  J028                 JUNCTION   1991.33  1991.33     0  18:20       0.102       0.102       0.001
  J01                  OUTFALL       0.00  1791.64     0  18:26           0       0.212       0.000
  
  
  **********************
  Node Surcharge Summary
  **********************
  
  Surcharging occurs when water rises above the top of the highest conduit.
  ---------------------------------------------------------------------
                                               Max. Height   Min. Depth
                                   Hours       Above Crown    Below Rim
  Node                 Type      Surcharged           Feet         Feet
  ---------------------------------------------------------------------
  J05                  JUNCTION        0.43          3.050        0.000
  J06                  JUNCTION        0.45          3.510        0.000
  J07                  JUNCTION        0.42          3.760        0.000
  J08                  JUNCTION        0.40          4.740        0.000
  J09                  JUNCTION        0.39          3.531        1.089
  J010                 JUNCTION        0.40          2.840        0.000
  J011                 JUNCTION        0.38          3.180        0.000
  J012                 JUNCTION        0.39          2.912        1.248
  J013                 JUNCTION        0.37          3.274        2.346
  J014                 JUNCTION        0.37          2.050        0.000
  J015                 JUNCTION        0.35          5.081        3.179
  J016                 JUNCTION        0.32          2.360        0.000
  J03                  JUNCTION        0.38          0.363        5.047
  J017                 JUNCTION        0.32          5.750        0.000
  J018                 JUNCTION        0.29          5.828        0.722
  J019                 JUNCTION        0.26          5.192        3.098
  J020                 JUNCTION        0.24          4.657        2.713
  J021                 JUNCTION        0.23          4.810        0.000
  J022                 JUNCTION        0.20          4.216        0.584
  J023                 JUNCTION        0.18          3.780        0.000
  J026                 JUNCTION        0.11          1.185        6.615
  J027                 JUNCTION        0.08          1.796        6.064
  J028                 JUNCTION        0.07          2.144        4.706
  
  
  *********************
  Node Flooding Summary
  *********************
  
  Flooding refers to all water that overflows a node, whether it ponds or not.
  --------------------------------------------------------------------------
                                                             Total   Maximum
                                 Maximum   Time of Max       Flood    Ponded
                        Hours       Rate    Occurrence      Volume     Depth
  Node                 Flooded       GPM   days hr:min    10^6 gal      Feet
  --------------------------------------------------------------------------
  J05                     0.01    137.47      0  18:15       0.000     0.000
  J06                     0.01    101.98      0  18:15       0.000     0.000
  J07                     0.01     61.63      0  18:15       0.000     0.000
  J08                     0.01    203.65      0  18:15       0.000     0.000
  J010                    0.17    117.59      0  18:15       0.000     0.000
  J011                    0.01    162.86      0  18:14       0.000     0.000
  J014                    0.32   1374.32      0  18:20       0.017     0.000
  J016                    0.29    896.21      0  18:20       0.011     0.000
  J017                    0.01     11.11      0  18:16       0.000     0.000
  J021                    0.18    436.29      0  18:20       0.004     0.000
  J023                    0.17    794.59      0  18:22       0.006     0.000
  
  
  ***********************
  Outfall Loading Summary
  ***********************
  
  -----------------------------------------------------------
                         Flow       Avg       Max       Total
                         Freq      Flow      Flow      Volume
  Outfall Node           Pcnt       GPM       GPM    10^6 gal
  -----------------------------------------------------------
  J01                   99.30    396.03   1791.64       0.212
  -----------------------------------------------------------
  System                99.30    396.03   1791.64       0.212
  
  
  ********************
  Link Flow Summary
  ********************
  
  -----------------------------------------------------------------------------
                                 Maximum  Time of Max   Maximum    Max/    Max/
                                  |Flow|   Occurrence   |Veloc|    Full    Full
  Link                 Type          GPM  days hr:min    ft/sec    Flow   Depth
  -----------------------------------------------------------------------------
  C016                 CONDUIT   1873.51     0  18:13      6.31    0.84    1.00
  C015                 CONDUIT   1835.84     0  18:15      5.21    1.15    1.00
  C014                 CONDUIT   2244.89     0  18:13      6.56    1.27    1.00
  C013                 CONDUIT   2162.30     0  18:13      6.30    1.06    1.00
  C012                 CONDUIT   2085.69     0  18:14      6.01    1.21    1.00
  C011                 CONDUIT   2016.73     0  18:14      5.88    1.03    1.00
  C010                 CONDUIT   2028.38     0  18:14      5.94    1.16    1.00
  C09                  CONDUIT   1954.34     0  18:15      5.70    1.13    1.00
  C08                  CONDUIT   1804.00     0  18:15      5.66    1.05    1.00
  C07                  CONDUIT   1791.75     0  18:26      5.08    1.02    1.00
  C06                  CONDUIT   1791.75     0  18:26      5.08    1.40    1.00
  C05                  CONDUIT   1791.75     0  18:26      6.02    1.26    0.92
  C04                  CONDUIT   1792.28     0  18:27      6.11    0.54    0.92
  C03                  CONDUIT   1791.66     0  18:26      5.31    1.21    0.91
  C02                  CONDUIT   1791.64     0  18:26      5.76    1.01    0.84
  C028                 CONDUIT   1962.80     0  18:20      5.98    1.09    1.00
  C027                 CONDUIT   1970.65     0  18:21      5.66    1.05    1.00
  C026                 CONDUIT   1975.54     0  18:21      5.92    1.25    0.92
  C025                 CONDUIT   1935.50     0  18:21      6.67    1.01    0.85
  C024                 CONDUIT   2019.87     0  18:22      5.88    0.74    0.94
  C023                 CONDUIT   2406.34     0  18:21      7.96    1.02    1.00
  C022                 CONDUIT   2406.34     0  18:21      6.91    0.88    1.00
  C021                 CONDUIT   2166.91     0  18:28      6.56    1.17    1.00
  C020                 CONDUIT   2167.30     0  18:28      7.35    0.97    1.00
  C019                 CONDUIT   2231.32     0  18:28      7.52    0.87    1.00
  C018                 CONDUIT   2387.07     0  18:20      6.77    1.01    1.00
  C017                 CONDUIT   2387.30     0  18:20      6.77    1.50    1.00
  
  
  ***************************
  Flow Classification Summary
  ***************************
  
  -------------------------------------------------------------------------------------
                      Adjusted    ---------- Fraction of Time in Flow Class ---------- 
                       /Actual         Up    Down  Sub   Sup   Up    Down  Norm  Inlet 
  Conduit               Length    Dry  Dry   Dry   Crit  Crit  Crit  Crit  Ltd   Ctrl  
  -------------------------------------------------------------------------------------
  C016                    1.00   0.00  0.00  0.00  0.09  0.91  0.00  0.00  0.97  0.00
  C015                    1.00   0.00  0.00  0.00  0.10  0.90  0.00  0.00  0.45  0.00
  C014                    1.00   0.00  0.00  0.00  0.10  0.90  0.00  0.00  0.00  0.00
  C013                    1.00   0.00  0.00  0.00  0.10  0.90  0.00  0.00  0.96  0.00
  C012                    1.00   0.00  0.00  0.00  0.10  0.90  0.00  0.00  0.02  0.00
  C011                    1.00   0.00  0.00  0.00  0.10  0.90  0.00  0.00  0.95  0.00
  C010                    1.00   0.00  0.00  0.00  0.11  0.89  0.00  0.00  0.31  0.00
  C09                     1.00   0.00  0.00  0.00  0.11  0.89  0.00  0.00  0.89  0.00
  C08                     1.00   0.00  0.00  0.00  0.11  0.89  0.00  0.00  0.07  0.00
  C07                     1.00   0.00  0.00  0.00  0.12  0.88  0.00  0.00  0.96  0.00
  C06                     1.00   0.00  0.00  0.00  0.17  0.83  0.00  0.00  0.18  0.00
  C05                     1.00   0.00  0.00  0.00  0.10  0.90  0.00  0.00  0.00  0.00
  C04                     1.00   0.00  0.00  0.00  0.10  0.90  0.00  0.00  0.96  0.00
  C03                     1.00   0.00  0.00  0.00  0.10  0.89  0.00  0.00  0.00  0.00
  C02                     1.00   0.00  0.00  0.00  0.00  0.99  0.00  0.00  0.14  0.00
  C028                    1.00   0.00  0.00  0.00  0.03  0.97  0.00  0.00  0.03  0.00
  C027                    1.00   0.00  0.00  0.00  0.03  0.97  0.00  0.00  0.98  0.00
  C026                    1.00   0.00  0.00  0.00  0.03  0.97  0.00  0.00  0.02  0.00
  C025                    1.00   0.00  0.00  0.00  0.00  1.00  0.00  0.00  0.01  0.00
  C024                    1.00   0.00  0.00  0.00  0.04  0.96  0.00  0.00  0.99  0.00
  C023                    1.00   0.00  0.00  0.00  0.05  0.95  0.00  0.00  0.01  0.00
  C022                    1.00   0.00  0.00  0.00  0.06  0.94  0.00  0.00  0.99  0.00
  C021                    1.00   0.00  0.00  0.00  0.06  0.94  0.00  0.00  0.01  0.00
  C020                    1.00   0.00  0.00  0.00  0.07  0.93  0.00  0.00  0.03  0.00
  C019                    1.00   0.00  0.00  0.00  0.07  0.93  0.00  0.00  0.98  0.00
  C018                    1.00   0.00  0.00  0.00  0.08  0.92  0.00  0.00  0.98  0.00
  C017                    1.00   0.00  0.00  0.00  0.09  0.91  0.00  0.00  0.04  0.00
  
  
  *************************
  Conduit Surcharge Summary
  *************************
  
  ----------------------------------------------------------------------------
                                                           Hours        Hours 
                         --------- Hours Full --------   Above Full   Capacity
  Conduit                Both Ends  Upstream  Dnstream   Normal Flow   Limited
  ----------------------------------------------------------------------------
  C016                        0.32      0.32      0.35      0.01         0.01
  C015                        0.35      0.35      0.37      0.34         0.33
  C014                        0.36      0.37      0.37      0.07         0.33
  C013                        0.37      0.37      0.39      0.02         0.02
  C012                        0.37      0.39      0.38      0.35         0.32
  C011                        0.38      0.38      0.40      0.02         0.02
  C010                        0.38      0.40      0.39      0.32         0.30
  C09                         0.38      0.39      0.40      0.33         0.30
  C08                         0.40      0.40      0.42      0.31         0.30
  C07                         0.42      0.42      0.45      0.27         0.30
  C06                         0.43      0.45      0.43      0.47         0.43
  C05                         0.01      0.43      0.01      0.45         0.01
  C04                         0.01      0.01      0.38      0.01         0.01
  C03                         0.01      0.38      0.01      0.42         0.01
  C02                         0.01      0.01      0.01      0.17         0.01
  C028                        0.07      0.07      0.08      0.11         0.07
  C027                        0.08      0.08      0.11      0.04         0.03
  C026                        0.01      0.11      0.01      0.15         0.01
  C025                        0.01      0.01      0.01      0.01         0.01
  C024                        0.01      0.01      0.18      0.01         0.01
  C023                        0.18      0.18      0.20      0.17         0.17
  C022                        0.20      0.20      0.23      0.01         0.01
  C021                        0.23      0.23      0.24      0.27         0.23
  C020                        0.24      0.24      0.26      0.01         0.01
  C019                        0.26      0.26      0.29      0.01         0.01
  C018                        0.29      0.29      0.32      0.11         0.12
  C017                        0.31      0.32      0.32      0.34         0.31
  

  Analysis begun on:  Wed Jan 02 08:24:29 2019
  Analysis ended on:  Wed Jan 02 08:24:29 2019
  Total elapsed time: < 1 sec