
  EPA STORM WATER MANAGEMENT MODEL - VERSION 5.1 (Build 5.1.012)
  --------------------------------------------------------------

  WARNING 04: minimum elevation drop used for Conduit 2
  WARNING 04: minimum elevation drop used for Conduit 1
  WARNING 04: minimum elevation drop used for Conduit 8
  
  *********************************************************
  NOTE: The summary statistics displayed in this report are
  based on results found at every computational time step,  
  not just on results from each reporting time step.
  *********************************************************
  
  ****************
  Analysis Options
  ****************
  Flow Units ............... CFS
  Process Models:
    Rainfall/Runoff ........ YES
    RDII ................... NO
    Snowmelt ............... NO
    Groundwater ............ NO
    Flow Routing ........... YES
    Ponding Allowed ........ NO
    Water Quality .......... YES
  Infiltration Method ...... HORTON
  Flow Routing Method ...... DYNWAVE
  Starting Date ............ 03/31/2003 00:00:00
  Ending Date .............. 04/01/2003 00:00:00
  Antecedent Dry Days ...... 0.0
  Report Time Step ......... 00:15:00
  Wet Time Step ............ 00:05:00
  Dry Time Step ............ 12:00:00
  Routing Time Step ........ 1.00 sec
  Variable Time Step ....... YES
  Maximum Trials ........... 8
  Number of Threads ........ 1
  Head Tolerance ........... 0.005000 ft
  
  
  **************************        Volume         Depth
  Runoff Quantity Continuity     acre-feet        inches
  **************************     ---------       -------
  Total Precipitation ......     46475.000        10.000
  Evaporation Loss .........         0.000         0.000
  Infiltration Loss ........     32601.156         7.015
  Surface Runoff ...........     11518.794         2.478
  Final Storage ............      2367.494         0.509
  Continuity Error (%) .....        -0.027
  
  
  **************************    Commercial
  Runoff Quality Continuity            lbs
  **************************    ----------
  Initial Buildup ..........         0.000
  Surface Buildup ..........         0.000
  Wet Deposition ...........         0.000
  Sweeping Removal .........         0.000
  Infiltration Loss ........         0.000
  BMP Removal ..............         0.000
  Surface Runoff ...........         0.000
  Remaining Buildup ........         0.000
  Continuity Error (%) .....         0.000
  
  
  **************************        Volume        Volume
  Flow Routing Continuity        acre-feet      10^6 gal
  **************************     ---------     ---------
  Dry Weather Inflow .......         0.000         0.000
  Wet Weather Inflow .......     11506.919      3749.702
  Groundwater Inflow .......         0.000         0.000
  RDII Inflow ..............         0.000         0.000
  External Inflow ..........         0.000         0.000
  External Outflow .........       605.679       197.370
  Flooding Loss ............         0.000         0.000
  Evaporation Loss .........         0.000         0.000
  Exfiltration Loss ........         0.000         0.000
  Initial Stored Volume ....       113.311        36.924
  Final Stored Volume ......     12631.397      4116.129
  Continuity Error (%) .....       -13.914
  
  
  **************************    Commercial
  Quality Routing Continuity           lbs
  **************************    ----------
  Dry Weather Inflow .......         0.000
  Wet Weather Inflow .......         0.000
  Groundwater Inflow .......         0.000
  RDII Inflow ..............         0.000
  External Inflow ..........         0.000
  External Outflow .........         0.000
  Flooding Loss ............         0.000
  Exfiltration Loss ........         0.000
  Mass Reacted .............         0.000
  Initial Stored Mass ......         0.000
  Final Stored Mass ........         0.000
  Continuity Error (%) .....         0.000
  
  
  *************************
  Highest Continuity Errors
  *************************
  Node 103 (74.71%)
  Node 108 (70.90%)
  Node 95 (68.55%)
  Node 110 (55.53%)
  Node 92 (54.12%)
  
  
  ***************************
  Time-Step Critical Elements
  ***************************
  None
  
  
  ********************************
  Highest Flow Instability Indexes
  ********************************
  Link 11 (46)
  Link 4 (45)
  Link 20 (43)
  Link 9 (35)
  Link 13 (32)
  
  
  *************************
  Routing Time Step Summary
  *************************
  Minimum Time Step           :     0.50 sec
  Average Time Step           :     1.00 sec
  Maximum Time Step           :     1.00 sec
  Percent in Steady State     :     0.00
  Average Iterations per Step :     2.00
  Percent Not Converging      :     0.01
  
  
  ***************************
  Subcatchment Runoff Summary
  ***************************
  
  --------------------------------------------------------------------------------------------------------
                            Total      Total      Total      Total      Total       Total     Peak  Runoff
                           Precip      Runon       Evap      Infil     Runoff      Runoff   Runoff   Coeff
  Subcatchment                 in         in         in         in         in    10^6 gal      CFS
  --------------------------------------------------------------------------------------------------------
  8                         10.00       0.00       0.00       4.63       4.94       23.22   194.06   0.494
  9                         10.00       0.00       0.00       1.38       8.24        2.91    32.83   0.824
  26                        10.00       0.00       0.00       6.73       2.84       93.99   589.10   0.284
  27                        10.00       0.00       0.00       7.03       2.62      205.74  1354.04   0.262
  2                         10.00       0.00       0.00       6.12       3.19      290.66  1639.91   0.319
  3                         10.00       0.00       0.00       5.89       3.50      157.97   953.93   0.350
  0                         10.00       0.00       0.00       6.39       2.60      543.13  2529.59   0.260
  1                         10.00       0.00       0.00       5.60       4.24        4.95    59.85   0.424
  6                         10.00       0.00       0.00       7.95       1.73      188.51  1118.87   0.173
  24                        10.00       0.00       0.00       7.17       2.14      326.89  1626.81   0.214
  25                        10.00       0.00       0.00       6.67       2.78      122.81   713.22   0.278
  19                        10.00       0.00       0.00       8.52       1.38       86.39   786.78   0.138
  18                        10.00       0.00       0.00       5.60       3.85      140.27   891.75   0.385
  28                        10.00       0.00       0.00       5.59       3.88       76.79   501.02   0.388
  13                        10.00       0.00       0.00       8.56       1.32       89.04   721.93   0.132
  12                        10.00       0.00       0.00       6.50       3.04      143.11   895.20   0.304
  11                        10.00       0.00       0.00       6.13       3.13      241.20  1327.49   0.313
  10                        10.00       0.00       0.00       6.54       3.16       93.23   749.02   0.316
  17                        10.00       0.00       0.00       7.99       1.87      142.53  1279.54   0.187
  16                        10.00       0.00       0.00       8.44       1.42      112.91   881.98   0.142
  15                        10.00       0.00       0.00       6.82       2.88      107.00   801.78   0.288
  14                        10.00       0.00       0.00       5.99       3.58       73.27   509.43   0.358
  29                        10.00       0.00       0.00       4.17       4.83      128.52   737.14   0.483
  20                        10.00       0.00       0.00       6.37       3.35       37.74   322.45   0.335
  21                        10.00       0.00       0.00       7.29       2.43      102.07   726.31   0.243
  22                        10.00       0.00       0.00       8.89       1.04       60.16   543.00   0.104
  23                        10.00       0.00       0.00       6.46       2.88      158.27   881.06   0.288
  
  
  ****************************
  Subcatchment Washoff Summary
  ****************************
  
  ----------------------------------
                          Commercial
  Subcatchment                   lbs
  ----------------------------------
  8                            0.000
  9                            0.000
  26                           0.000
  27                           0.000
  2                            0.000
  3                            0.000
  0                            0.000
  1                            0.000
  6                            0.000
  24                           0.000
  25                           0.000
  19                           0.000
  18                           0.000
  28                           0.000
  13                           0.000
  12                           0.000
  11                           0.000
  10                           0.000
  17                           0.000
  16                           0.000
  15                           0.000
  14                           0.000
  29                           0.000
  20                           0.000
  21                           0.000
  22                           0.000
  23                           0.000
  ----------------------------------
  System                       0.000
  
  
  ******************
  Node Depth Summary
  ******************
  
  ---------------------------------------------------------------------------------
                                 Average  Maximum  Maximum  Time of Max    Reported
                                   Depth    Depth      HGL   Occurrence   Max Depth
  Node                 Type         Feet     Feet     Feet  days hr:min        Feet
  ---------------------------------------------------------------------------------
  92                   JUNCTION     3.81     9.06    15.62     1  00:00        9.06
  76                   JUNCTION     2.30     3.35     3.35     0  16:36        3.35
  95                   JUNCTION     4.76    12.45    15.73     1  00:00       12.45
  94                   JUNCTION    26.62    31.51   113.54     0  13:50       31.51
  129                  JUNCTION    27.86    31.34   113.37     0  15:50       31.34
  98                   JUNCTION    64.06    66.76   280.02     0  13:08       66.76
  126                  JUNCTION    25.10    29.24   111.27     0  13:29       29.24
  121                  JUNCTION     8.48    12.87    29.28     0  20:17       12.87
  120                  JUNCTION    62.34    66.33   269.75     0  14:24       66.33
  122                  JUNCTION    18.75    23.60    72.82     0  16:07       23.60
  109                  JUNCTION    17.44    18.65    80.99     0  13:04       18.64
  108                  JUNCTION    32.22    36.24   137.95     0  21:46       36.24
  118                  JUNCTION    17.58    22.61    75.11     0  12:28       22.61
  119                  JUNCTION     6.64    10.12    23.24     0  20:04       10.12
  114                  JUNCTION     8.43    14.04    33.73     0  18:04       14.04
  110                  JUNCTION     6.36    14.21    17.49     1  00:00       14.21
  106                  JUNCTION    25.21    26.61   108.64     0  13:12       26.61
  107                  JUNCTION    70.52    76.81   306.48     0  14:02       76.81
  80                   JUNCTION     0.75     2.01     5.29     0  12:12        2.01
  103                  JUNCTION     4.61    12.84    16.12     1  00:00       12.84
  102                  JUNCTION    12.06    16.32    58.97     0  13:32       16.32
  101                  JUNCTION    25.90    27.56   109.59     0  13:00       27.56
  117                  JUNCTION    16.71    19.86    72.36     0  15:48       19.86
  85                   JUNCTION     4.25     5.24    18.36     0  13:35        5.24
  104                  JUNCTION     2.10     6.33    16.17     1  00:00        6.33
  105                  JUNCTION    39.86    46.32   193.97     0  15:18       46.32
  79                   JUNCTION     2.11     4.04     4.04     1  00:00        4.04
  68                   OUTFALL      2.50     2.50     2.50     0  00:00        2.50
  
  
  *******************
  Node Inflow Summary
  *******************
  
  -------------------------------------------------------------------------------------------------
                                  Maximum  Maximum                  Lateral       Total        Flow
                                  Lateral    Total  Time of Max      Inflow      Inflow     Balance
                                   Inflow   Inflow   Occurrence      Volume      Volume       Error
  Node                 Type           CFS      CFS  days hr:min    10^6 gal    10^6 gal     Percent
  -------------------------------------------------------------------------------------------------
  92                   JUNCTION    322.45  1893.53     0  23:39        37.7         377     117.962
  76                   JUNCTION    501.02  2033.75     0  13:56        76.7         762      55.331
  95                   JUNCTION    891.75  2821.72     0  22:55         140         702     217.999
  94                   JUNCTION    881.06   881.06     0  13:00         158         158      -0.332
  129                  JUNCTION   2529.59  2529.59     0  13:00         542         542      12.585
  98                   JUNCTION    543.00   543.00     0  12:00        60.1        60.1       3.805
  126                  JUNCTION   1639.91  1639.91     0  13:00         290         290      -2.313
  121                  JUNCTION     59.85  3465.32     0  14:57        4.95         784      50.642
  120                  JUNCTION   1118.87  1118.87     0  13:00         188         188      -9.242
  122                  JUNCTION   1626.81  1626.81     0  13:00         326         326       4.173
  109                  JUNCTION    881.98  1591.43     0  13:00         113         336       4.604
  108                  JUNCTION   1279.54  1925.30     0  16:51         142         474     243.666
  118                  JUNCTION    953.93   953.93     0  13:00         158         158      -0.270
  119                  JUNCTION    509.43  3433.08     0  19:29        73.2         887      17.999
  114                  JUNCTION    749.02  3517.07     0  13:05        93.2         516      76.008
  110                  JUNCTION    895.20  4020.86     0  21:26         143   1.07e+003     124.865
  106                  JUNCTION    726.31   726.31     0  12:00         102         102      -0.175
  107                  JUNCTION    721.93   721.93     0  12:00          89          89      14.687
  80                   JUNCTION    589.10   589.10     0  13:00        93.9        93.9       0.760
  103                  JUNCTION      0.00  3053.50     0  22:15           0         682     295.362
  102                  JUNCTION    801.78   801.78     0  12:00         107         107      10.655
  101                  JUNCTION    786.78   786.78     0  12:00        86.3        86.3       1.552
  117                  JUNCTION   1327.49  1327.49     0  13:00         241         241       4.236
  85                   JUNCTION   1354.04  1354.04     0  12:00         206         206       2.007
  104                  JUNCTION    226.89  3737.76     0  22:32        26.1         732      30.830
  105                  JUNCTION      0.00   809.32     0  14:03           0         136       8.927
  79                   JUNCTION   1450.35  2252.04     0  12:09         251         498     101.288
  68                   OUTFALL       0.00  1676.21     0  16:36           0         670       0.000
  
  
  **********************
  Node Surcharge Summary
  **********************
  
  No nodes were surcharged.
  
  
  *********************
  Node Flooding Summary
  *********************
  
  No nodes were flooded.
  
  
  ***********************
  Outfall Loading Summary
  ***********************
  
  -------------------------------------------------------------------------
                         Flow       Avg       Max       Total         Total
                         Freq      Flow      Flow      Volume    Commercial
  Outfall Node           Pcnt       CFS       CFS    10^6 gal           lbs
  -------------------------------------------------------------------------
  68                   100.00   1036.96   1676.21     670.154         0.000
  -------------------------------------------------------------------------
  System               100.00   1036.96   1676.21     670.154         0.000
  
  
  ********************
  Link Flow Summary
  ********************
  
  -----------------------------------------------------------------------------
                                 Maximum  Time of Max   Maximum    Max/    Max/
                                  |Flow|   Occurrence   |Veloc|    Full    Full
  Link                 Type          CFS  days hr:min    ft/sec    Flow   Depth
  -----------------------------------------------------------------------------
  24                   CHANNEL   1243.83     0  19:27      0.95    0.01    0.14
  25                   CHANNEL    916.08     0  16:53      0.97    0.00    0.10
  26                   CHANNEL   1991.73     0  14:03      1.43    0.03    0.24
  27                   CHANNEL   1869.87     0  17:16      0.86    0.01    0.19
  2                    CHANNEL    997.07     1  00:00      0.17    4.65    0.37
  3                    CHANNEL    599.22     0  12:34      0.67    0.46    0.75
  1                    CHANNEL   1676.21     0  16:36      0.30    0.13    0.06
  6                    CHANNEL    746.83     0  14:09      1.54    0.00    0.12
  7                    CHANNEL   1588.39     1  00:00      0.63    0.00    0.17
  4                    CHANNEL   1084.27     0  14:04      0.55    0.01    0.06
  5                    CHANNEL    890.07     1  00:00      0.46    0.00    0.10
  8                    CHANNEL   1631.91     1  00:00      0.19    0.50    0.21
  9                    CHANNEL    655.19     0  14:23      1.39    0.00    0.19
  19                   CHANNEL   2007.18     0  13:44      1.29    0.00    0.08
  18                   CHANNEL    865.20     0  19:40      0.97    0.01    0.11
  13                   CHANNEL    793.13     0  16:51      0.89    0.00    0.10
  12                   CHANNEL    372.74     0  14:02      1.61    0.00    0.18
  11                   CHANNEL    436.60     0  14:04      0.68    0.01    0.07
  10                   CHANNEL   2782.86     0  22:42      0.52    0.00    0.16
  17                   CHANNEL    540.13     0  21:43      0.88    0.00    0.05
  16                   CHANNEL   1328.38     0  13:05      1.84    0.01    0.19
  15                   CHANNEL   3108.72     0  23:35      0.50    0.01    0.19
  14                   CHANNEL    605.48     0  13:02      0.70    0.00    0.03
  20                   CHANNEL   1029.54     0  13:04      2.21    0.01    0.30
  21                   CHANNEL   3513.49     0  21:23      0.61    0.02    0.18
  22                   CHANNEL   1158.96     0  19:08      0.89    0.00    0.10
  23                   CHANNEL   2198.34     0  20:08      1.06    0.01    0.12
  
  
  ***************************
  Flow Classification Summary
  ***************************
  
  -------------------------------------------------------------------------------------
                      Adjusted    ---------- Fraction of Time in Flow Class ---------- 
                       /Actual         Up    Down  Sub   Sup   Up    Down  Norm  Inlet 
  Conduit               Length    Dry  Dry   Dry   Crit  Crit  Crit  Crit  Ltd   Ctrl  
  -------------------------------------------------------------------------------------
  24                      1.00   0.01  0.01  0.00  0.89  0.01  0.00  0.07  0.00  0.00
  25                      1.00   0.03  0.02  0.00  0.96  0.00  0.00  0.00  0.03  0.00
  26                      1.00   0.03  0.00  0.00  0.97  0.00  0.00  0.00  0.06  0.00
  27                      1.00   0.03  0.00  0.00  0.76  0.00  0.00  0.21  0.00  0.00
  2                       1.00   0.00  0.00  0.00  1.00  0.00  0.00  0.00  0.00  0.00
  3                       1.00   0.00  0.00  0.00  1.00  0.00  0.00  0.00  0.00  0.00
  1                       1.00   0.00  0.00  0.00  1.00  0.00  0.00  0.00  0.00  0.00
  6                       1.00   0.01  0.02  0.00  0.81  0.05  0.00  0.11  0.03  0.00
  7                       1.00   0.01  0.00  0.00  0.96  0.00  0.00  0.03  0.00  0.00
  4                       1.00   0.00  0.01  0.00  0.99  0.00  0.00  0.00  0.28  0.00
  5                       1.00   0.01  0.00  0.00  0.99  0.00  0.00  0.00  0.00  0.00
  8                       1.00   0.01  0.00  0.00  0.93  0.00  0.06  0.00  0.00  0.00
  9                       1.00   0.02  0.00  0.00  0.44  0.00  0.00  0.54  0.17  0.00
  19                      1.00   0.01  0.01  0.00  0.98  0.00  0.00  0.00  0.07  0.00
  18                      1.00   0.01  0.01  0.00  0.82  0.00  0.00  0.16  0.01  0.00
  13                      1.00   0.03  0.11  0.00  0.86  0.00  0.00  0.00  0.30  0.00
  12                      1.00   0.04  0.00  0.00  0.00  0.00  0.00  0.96  0.00  0.00
  11                      1.00   0.04  0.00  0.00  0.86  0.00  0.00  0.10  0.15  0.00
  10                      1.00   0.01  0.00  0.00  0.93  0.00  0.00  0.06  0.00  0.00
  17                      1.00   0.02  0.00  0.00  0.97  0.00  0.00  0.00  0.00  0.00
  16                      1.00   0.01  0.02  0.00  0.97  0.00  0.00  0.00  0.47  0.00
  15                      1.00   0.01  0.00  0.00  0.86  0.00  0.13  0.00  0.04  0.00
  14                      1.00   0.02  0.00  0.00  0.97  0.00  0.00  0.00  0.04  0.00
  20                      1.00   0.01  0.02  0.00  0.69  0.01  0.00  0.28  0.15  0.00
  21                      1.00   0.01  0.01  0.00  0.98  0.00  0.00  0.00  0.01  0.00
  22                      1.00   0.01  0.00  0.00  0.98  0.00  0.00  0.00  0.02  0.00
  23                      1.00   0.02  0.01  0.00  0.97  0.00  0.00  0.00  0.23  0.00
  
  
  *************************
  Conduit Surcharge Summary
  *************************
  
  ----------------------------------------------------------------------------
                                                           Hours        Hours 
                         --------- Hours Full --------   Above Full   Capacity
  Conduit                Both Ends  Upstream  Dnstream   Normal Flow   Limited
  ----------------------------------------------------------------------------
  2                           0.01      0.01      0.01     16.22         0.01
  3                           0.01      0.01     10.57      0.01         0.01
  
  
  ***************************
  Link Pollutant Load Summary
  ***************************
  
  ----------------------------------
                          Commercial
  Link                           lbs
  ----------------------------------
  24                           0.000
  25                           0.000
  26                           0.000
  27                           0.000
  2                            0.000
  3                            0.000
  1                            0.000
  6                            0.000
  7                            0.000
  4                            0.000
  5                            0.000
  8                            0.000
  9                            0.000
  19                           0.000
  18                           0.000
  13                           0.000
  12                           0.000
  11                           0.000
  10                           0.000
  17                           0.000
  16                           0.000
  15                           0.000
  14                           0.000
  20                           0.000
  21                           0.000
  22                           0.000
  23                           0.000
  

  Analysis begun on:  Wed Jan 02 08:24:29 2019
  Analysis ended on:  Wed Jan 02 08:24:48 2019
  Total elapsed time: 00:00:19