
  EPA STORM WATER MANAGEMENT MODEL - VERSION 5.1 (Build 5.1.012)
  --------------------------------------------------------------

  WARNING 03: negative offset ignored for Link 1412
  WARNING 03: negative offset ignored for Link 1576
  WARNING 03: negative offset ignored for Link 1594
  WARNING 03: negative offset ignored for Link 1608
  WARNING 03: negative offset ignored for Link 1612
  WARNING 03: negative offset ignored for Link 170-OVERFLOW
  WARNING 03: negative offset ignored for Link 170-OVERFLOW
  WARNING 03: negative offset ignored for Link 1731
  WARNING 03: negative offset ignored for Link 1748
  WARNING 03: negative offset ignored for Link 1755
  WARNING 03: negative offset ignored for Link 1800
  WARNING 03: negative offset ignored for Link 1800
  WARNING 03: negative offset ignored for Link 1801
  WARNING 03: negative offset ignored for Link 1801
  WARNING 03: negative offset ignored for Link 1802
  WARNING 03: negative offset ignored for Link 1802
  WARNING 03: negative offset ignored for Link 1803
  WARNING 03: negative offset ignored for Link 1803
  WARNING 03: negative offset ignored for Link 1804
  WARNING 03: negative offset ignored for Link 1804
  WARNING 03: negative offset ignored for Link 1805
  WARNING 03: negative offset ignored for Link 1805
  WARNING 03: negative offset ignored for Link 1806
  WARNING 03: negative offset ignored for Link 1806
  WARNING 03: negative offset ignored for Link 1807
  WARNING 03: negative offset ignored for Link 1807
  WARNING 03: negative offset ignored for Link 1808
  WARNING 03: negative offset ignored for Link 1808
  WARNING 03: negative offset ignored for Link 1809
  WARNING 03: negative offset ignored for Link 1809
  WARNING 03: negative offset ignored for Link 1823
  WARNING 03: negative offset ignored for Link 1869
  WARNING 03: negative offset ignored for Link 1869
  WARNING 03: negative offset ignored for Link 1873
  WARNING 03: negative offset ignored for Link 1873
  WARNING 03: negative offset ignored for Link 1957
  WARNING 03: negative offset ignored for Link 2274
  WARNING 03: negative offset ignored for Link 2276
  WARNING 03: negative offset ignored for Link 2277
  WARNING 03: negative offset ignored for Link 2277
  WARNING 03: negative offset ignored for Link 2282
  WARNING 03: negative offset ignored for Link CDT-109
  WARNING 03: negative offset ignored for Link CDT-129
  WARNING 08: elevation drop exceeds length for Conduit CDT-129
  WARNING 03: negative offset ignored for Link CDT-39
  WARNING 03: negative offset ignored for Link CDT-73
  WARNING 03: negative offset ignored for Link CDT-83
  WARNING 03: negative offset ignored for Link CDT-91
  WARNING 03: negative offset ignored for Link MITCHELL_POND
  WARNING 10: crest elevation raised to downstream invert for regulator Link POND_D-ORIFICE
  WARNING 10: crest elevation raised to downstream invert for regulator Link R5-ORIFICE
  WARNING 02: maximum depth increased for Node 1101
  WARNING 02: maximum depth increased for Node 1110
  WARNING 02: maximum depth increased for Node 1861
  WARNING 02: maximum depth increased for Node 1874
  WARNING 02: maximum depth increased for Node 1875
  WARNING 02: maximum depth increased for Node 1884
  WARNING 02: maximum depth increased for Node 1893
  WARNING 02: maximum depth increased for Node 1923
  WARNING 02: maximum depth increased for Node 1954
  WARNING 02: maximum depth increased for Node 2242
  WARNING 02: maximum depth increased for Node 2256
  WARNING 02: maximum depth increased for Node 392
  WARNING 02: maximum depth increased for Node 65
  WARNING 02: maximum depth increased for Node 858
  WARNING 02: maximum depth increased for Node 896
  WARNING 02: maximum depth increased for Node JCT-10
  WARNING 02: maximum depth increased for Node JCT-16
  WARNING 02: maximum depth increased for Node JCT-26
  WARNING 02: maximum depth increased for Node JCT-48
  WARNING 02: maximum depth increased for Node JCT-62
  WARNING 02: maximum depth increased for Node LP-2380
  WARNING 02: maximum depth increased for Node OS-2168
  WARNING 02: maximum depth increased for Node 1037
  WARNING 02: maximum depth increased for Node 1049
  WARNING 02: maximum depth increased for Node 1050
  WARNING 02: maximum depth increased for Node 1067
  WARNING 02: maximum depth increased for Node 1071
  WARNING 02: maximum depth increased for Node 1088-2
  WARNING 02: maximum depth increased for Node 1092
  WARNING 02: maximum depth increased for Node 1103
  WARNING 02: maximum depth increased for Node 1153
  WARNING 02: maximum depth increased for Node 1170
  WARNING 02: maximum depth increased for Node 1759
  WARNING 02: maximum depth increased for Node 1760
  WARNING 02: maximum depth increased for Node 1762
  WARNING 02: maximum depth increased for Node 1763
  WARNING 02: maximum depth increased for Node 1766
  WARNING 02: maximum depth increased for Node 1767
  WARNING 02: maximum depth increased for Node 180
  WARNING 02: maximum depth increased for Node 1805
  WARNING 02: maximum depth increased for Node 1818
  WARNING 02: maximum depth increased for Node 1895
  WARNING 02: maximum depth increased for Node 1952
  WARNING 02: maximum depth increased for Node 2428
  WARNING 02: maximum depth increased for Node 272
  WARNING 02: maximum depth increased for Node 386
  WARNING 02: maximum depth increased for Node 399
  WARNING 02: maximum depth increased for Node 416
  WARNING 02: maximum depth increased for Node 562
  WARNING 02: maximum depth increased for Node 589
  WARNING 02: maximum depth increased for Node 592
  WARNING 02: maximum depth increased for Node 788
  WARNING 02: maximum depth increased for Node 851
  WARNING 02: maximum depth increased for Node 855
  WARNING 02: maximum depth increased for Node 859
  WARNING 02: maximum depth increased for Node 860
  WARNING 02: maximum depth increased for Node 861
  WARNING 02: maximum depth increased for Node 863
  WARNING 02: maximum depth increased for Node 864
  WARNING 02: maximum depth increased for Node 865
  WARNING 02: maximum depth increased for Node 870
  WARNING 02: maximum depth increased for Node 879
  WARNING 02: maximum depth increased for Node 880
  WARNING 02: maximum depth increased for Node 895
  WARNING 02: maximum depth increased for Node 901
  WARNING 02: maximum depth increased for Node 902
  WARNING 02: maximum depth increased for Node 905
  WARNING 02: maximum depth increased for Node DIV-10
  WARNING 02: maximum depth increased for Node JCT-22
  WARNING 02: maximum depth increased for Node JCT-24
  
  *************
  Element Count
  *************
  Number of rain gages ...... 1
  Number of subcatchments ... 28
  Number of nodes ........... 183
  Number of links ........... 268
  Number of pollutants ...... 0
  Number of land uses ....... 0
  
  
  ****************
  Raingage Summary
  ****************
                                                      Data       Recording
  Name                 Data Source                    Type       Interval 
  ------------------------------------------------------------------------
  RG1                  100_YR                         INTENSITY    6 min.
  
  
  ********************
  Subcatchment Summary
  ********************
  Name                       Area     Width   %Imperv    %Slope Rain Gage            Outlet              
  -----------------------------------------------------------------------------------------------------------
  0                         94.42    500.00     25.00    0.5000 RG1                  P8-16               
  1                        135.74    500.00     25.00    0.5000 RG1                  P8-11               
  10                        30.90    500.00     25.00    0.5000 RG1                  P8-6                
  11                        47.16    500.00     25.00    0.5000 RG1                  2355                
  12                        87.72    500.00     25.00    0.5000 RG1                  1792                
  13                       101.87    500.00     25.00    0.5000 RG1                  1800                
  14                         0.96    500.00     25.00    0.5000 RG1                  P8-15               
  15                        14.76    500.00     25.00    0.5000 RG1                  1804                
  16                        12.01    500.00     25.00    0.5000 RG1                  P8-15               
  17                        23.71    500.00     25.00    0.5000 RG1                  P8-3                
  18                         5.93    500.00     25.00    0.5000 RG1                  P8-2                
  19                        15.09    500.00     25.00    0.5000 RG1                  P8-1                
  2                        107.42    500.00     25.00    0.5000 RG1                  P8-13               
  20                        11.10    500.00     25.00    0.5000 RG1                  1759                
  21                        13.85    500.00     25.00    0.5000 RG1                  P8-4                
  22                        78.59    500.00     25.00    0.5000 RG1                  1792                
  23                        15.33    500.00     25.00    0.5000 RG1                  P8-9                
  24                        11.01    500.00     25.00    0.5000 RG1                  P8-8                
  25                        16.46    500.00     25.00    0.5000 RG1                  P8-7                
  26                         7.20    500.00     25.00    0.5000 RG1                  P8-10               
  27                        49.78    500.00     25.00    0.5000 RG1                  DIV-10              
  3                         57.48    500.00     25.00    0.5000 RG1                  P8-14               
  4                        125.94    500.00     25.00    0.5000 RG1                  P8-12               
  5                         16.47    500.00     25.00    0.5000 RG1                  399                 
  6                         37.30    500.00     25.00    0.5000 RG1                  P8-5                
  7                         21.21    500.00     25.00    0.5000 RG1                  JCT-22              
  8                         34.58    500.00     25.00    0.5000 RG1                  2428                
  9                         44.01    500.00     25.00    0.5000 RG1                  895                 
  
  
  ************
  Node Summary
  ************
                                           Invert      Max.    Ponded    External
  Name                 Type                 Elev.     Depth      Area    Inflow  
  -------------------------------------------------------------------------------
  1035                 JUNCTION           4520.46      3.49       0.0
  1039                 JUNCTION           4520.57      5.83       0.0
  1052                 JUNCTION           4556.40      4.23       0.0
  1063                 JUNCTION           4519.61      6.39       0.0
  1069                 JUNCTION           4543.80      3.15       0.0
  1101                 JUNCTION           4519.19      6.81       0.0
  1110                 JUNCTION           4520.34      3.00       0.0
  1131                 JUNCTION           4518.91      5.54       0.0
  1410                 JUNCTION           4510.23     10.01       0.0
  1414                 JUNCTION           4514.30      8.84       0.0
  1792                 JUNCTION           4502.98     11.59       0.0
  1800                 JUNCTION           4518.20     21.00       0.0
  1801                 JUNCTION           4517.71     11.79       0.0
  1804                 JUNCTION           4522.27     16.91       0.0
  1806                 JUNCTION           4523.15      9.49       0.0
  1808                 JUNCTION           4524.76      8.56       0.0
  1810                 JUNCTION           4525.94      8.63       0.0
  1846                 JUNCTION           4532.99      4.10       0.0
  1847                 JUNCTION           4539.00      5.00       0.0
  1861                 JUNCTION           4518.30      2.00       0.0
  1866                 JUNCTION           4514.50      6.00       0.0
  1867                 JUNCTION           4514.40      5.71       0.0
  1874                 JUNCTION           4539.88     12.69       0.0
  1875                 JUNCTION           4534.44     15.64       0.0
  1876                 JUNCTION           4546.64     10.52       0.0
  1884                 JUNCTION           4536.50     20.96       0.0
  1893                 JUNCTION           4588.92      9.34       0.0
  1894                 JUNCTION           4583.55      5.84       0.0
  1896                 JUNCTION           4519.30     12.70       0.0
  1898                 JUNCTION           4518.79     15.60       0.0
  1923                 JUNCTION           4613.68      7.84       0.0
  1954                 JUNCTION           4524.66      7.58       0.0
  1965                 JUNCTION           4598.15      8.85     200.0
  2069                 JUNCTION           4518.80      6.14       0.0
  2076                 JUNCTION           4518.30      6.05       0.0
  2087                 JUNCTION           4519.00      5.17       0.0
  2140                 JUNCTION           4600.30     12.44       0.0
  2169                 JUNCTION           4518.00      5.00       0.0
  2171                 JUNCTION           4517.50     10.00       0.0
  2242                 JUNCTION           4534.00     11.50       0.0
  2255                 JUNCTION           4555.46     10.36       0.0
  2256                 JUNCTION           4563.00      9.71       0.0
  2266                 JUNCTION           4549.30      5.89       0.0
  2339                 JUNCTION           4592.00      5.17       0.0
  2347                 JUNCTION           4600.00      6.50       0.0
  2349                 JUNCTION           4590.00      6.07       0.0
  2358                 JUNCTION           4552.00      8.00       0.0
  2369                 JUNCTION           4532.75      5.25       0.0
  2370                 JUNCTION           4531.00      4.47       0.0
  2381                 JUNCTION           4523.00      5.00       0.0
  2382                 JUNCTION           4518.80      5.23       0.0
  341                  JUNCTION           4600.14      5.54       0.0
  375                  JUNCTION           4541.99      4.09       0.0
  384                  JUNCTION           4518.29      7.53       0.0
  385                  JUNCTION           4518.77      4.59       0.0
  392                  JUNCTION           4520.60      8.42       0.0
  439                  JUNCTION           4519.49      4.84       0.0
  597                  JUNCTION           4518.45      6.68       0.0
  65                   JUNCTION           4596.00     25.52       0.0
  662                  JUNCTION           4547.13      5.42     200.0
  791                  JUNCTION           4621.37      5.63       0.0
  857                  JUNCTION           4552.05      3.87       0.0
  858                  JUNCTION           4538.35      2.50       0.0
  862                  JUNCTION           4548.30      4.76       0.0
  867                  JUNCTION           4540.24      2.56       0.0
  869                  JUNCTION           4540.01      3.88     200.0
  882                  JUNCTION           4543.02      3.12       0.0
  883                  JUNCTION           4541.02      3.77       0.0
  884                  JUNCTION           4546.30      5.96       0.0
  885                  JUNCTION           4546.12      9.80     200.0
  886                  JUNCTION           4548.00      7.92       0.0
  887                  JUNCTION           4545.49      3.02       0.0
  888                  JUNCTION           4556.23      3.55       0.0
  889                  JUNCTION           4550.94      4.98       0.0
  896                  JUNCTION           4603.00      5.00       0.0
  903                  JUNCTION           4617.70     10.66     200.0
  904                  JUNCTION           4615.60     12.48     200.0
  908                  JUNCTION           4557.41      5.07       0.0
  JCT-10               JUNCTION           4528.80      3.67       0.0
  JCT-12               JUNCTION           4550.02      3.00       0.0
  JCT-16               JUNCTION           4559.83      4.00       0.0
  JCT-26               JUNCTION           4596.80      3.00       0.0
  JCT-28               JUNCTION           4588.70      5.30       0.0
  JCT-30               JUNCTION           4572.87      3.00       0.0
  JCT-32               JUNCTION           4579.94      6.06       0.0
  JCT-34               JUNCTION           4518.99      5.01       0.0
  JCT-36               JUNCTION           4619.00      2.00       0.0
  JCT-38               JUNCTION           4598.00      4.00       0.0
  JCT-40               JUNCTION           4617.00      2.00       0.0
  JCT-42               JUNCTION           4530.50      7.50       0.0
  JCT-48               JUNCTION           4616.65      4.05       0.0
  JCT-60               JUNCTION              0.00   4601.15       0.0
  JCT-62               JUNCTION           4552.00      4.00       0.0
  LP-2380              JUNCTION           4521.00      3.50     200.0
  OS-2168              JUNCTION           4507.00     18.49     200.0
  1821                 OUTFALL            4502.00     11.09       0.0
  1029                 DIVIDER            4521.93      6.07     200.0
  1037                 DIVIDER            4521.22      8.18       0.0
  1049                 DIVIDER            4558.00      5.00       0.0
  1050                 DIVIDER            4556.00      5.00       0.0
  1067                 DIVIDER            4562.00      5.00       0.0
  1071                 DIVIDER            4519.51      6.59       0.0
  1088-2               DIVIDER            4519.80      6.32     200.0
  1092                 DIVIDER            4521.25     10.75       0.0
  1103                 DIVIDER            4542.13      6.60       0.0
  1153                 DIVIDER            4537.36      7.27       0.0
  1170                 DIVIDER            4587.13      5.00     200.0
  1759                 DIVIDER            4585.46     22.72       0.0
  1760                 DIVIDER            4585.30     23.89       0.0
  1762                 DIVIDER            4582.10      8.44     200.0
  1763                 DIVIDER            4580.96      7.61       0.0
  1764                 DIVIDER            4573.06      8.94     200.0
  1765                 DIVIDER            4571.73      3.71       0.0
  1766                 DIVIDER            4566.59      7.41       0.0
  1767                 DIVIDER            4563.35      9.65       0.0
  180                  DIVIDER            4541.91      8.96       0.0
  1805                 DIVIDER            4522.79     15.92       0.0
  1807                 DIVIDER            4524.37      9.53       0.0
  1809                 DIVIDER            4524.78     10.91       0.0
  1818                 DIVIDER            4570.87      7.84       0.0
  1895                 DIVIDER            4520.14     11.00       0.0
  1897                 DIVIDER            4519.22     16.47       0.0
  1952                 DIVIDER            4588.82      9.34       0.0
  1955                 DIVIDER            4524.64     10.29       0.0
  238                  DIVIDER            4580.21      7.79     200.0
  2428                 DIVIDER            4551.84      7.16       0.0
  243                  DIVIDER            4587.23      6.77     200.0
  272                  DIVIDER            4522.61      7.48    6187.0
  386                  DIVIDER            4519.51      6.61       0.0
  387                  DIVIDER            4519.71      6.29       0.0
  399                  DIVIDER            4603.32      7.50       0.0
  416                  DIVIDER            4603.06      6.32       0.0
  562                  DIVIDER            4572.54      7.46     200.0
  589                  DIVIDER            4523.50      6.97     200.0
  592                  DIVIDER            4520.37      6.63       0.0
  676                  DIVIDER            4575.36      6.64     200.0
  787                  DIVIDER            4626.43      9.57     200.0
  788                  DIVIDER            4625.38      9.62     200.0
  792                  DIVIDER            4621.12      6.88       0.0
  851                  DIVIDER            4550.26      7.74       0.0
  853                  DIVIDER            4565.38      6.62       0.0
  854                  DIVIDER            4570.10      5.90       0.0
  855                  DIVIDER            4572.04      5.33       0.0
  859                  DIVIDER            4587.29      9.00       0.0
  860                  DIVIDER            4538.18      9.45       0.0
  861                  DIVIDER            4536.89      8.63       0.0
  863                  DIVIDER            4549.41      5.00       0.0
  864                  DIVIDER            4553.84      5.00       0.0
  865                  DIVIDER            4560.26      5.00       0.0
  866                  DIVIDER            4576.74      6.26       0.0
  868                  DIVIDER            4538.05      5.95     200.0
  870                  DIVIDER            4532.47      7.19       0.0
  879                  DIVIDER            4536.20      6.80     200.0
  880                  DIVIDER            4568.56      5.00       0.0
  895                  DIVIDER            4544.60      7.38       0.0
  901                  DIVIDER            4619.68     11.32     200.0
  902                  DIVIDER            4618.76     10.24     200.0
  905                  DIVIDER            4625.22      4.78       0.0
  906                  DIVIDER            4558.70      7.30       0.0
  907                  DIVIDER            4571.56      6.44       0.0
  909                  DIVIDER            4560.91      6.09       0.0
  DIV-10               DIVIDER            4529.98      5.03       0.0
  DIV-170              DIVIDER            4548.79      5.21       0.0
  JCT-22               DIVIDER            4599.00     12.79     160.0
  JCT-24               DIVIDER            4598.00      3.00       0.0
  2355                 STORAGE            4549.00      4.00       0.0
  P8-1                 STORAGE            4626.50      8.00       0.0
  P8-10                STORAGE            4548.00      4.00       0.0
  P8-11                STORAGE            4550.00      8.00       0.0
  P8-12                STORAGE            4556.50      9.00       0.0
  P8-13                STORAGE            4536.00      8.00       0.0
  P8-14                STORAGE            4530.00      6.00       0.0
  P8-15                STORAGE            4526.00     11.00       0.0
  P8-16                STORAGE            4515.00      5.00       0.0
  P8-17                STORAGE            4517.00      4.00       0.0
  P8-2                 STORAGE            4624.00      4.00       0.0
  P8-3                 STORAGE            4623.00      4.00       0.0
  P8-4                 STORAGE            4561.00      5.00       0.0
  P8-5                 STORAGE            4602.00      5.00       0.0
  P8-6                 STORAGE            4596.50      7.50       0.0
  P8-7                 STORAGE            4524.00     10.00       0.0
  P8-8                 STORAGE            4527.50      6.50       0.0
  P8-9                 STORAGE            4539.00      8.00       0.0
  
  
  ************
  Link Summary
  ************
  Name             From Node        To Node          Type            Length    %Slope Roughness
  ---------------------------------------------------------------------------------------------
  1088-OVERFLOW    1088-2           LP-2380          CONDUIT          139.6    1.5184    0.0150
  1379             1894             238              CONDUIT           49.6    6.7510    0.0100
  1382             1893             1952             CONDUIT           65.5    0.1528    0.0130
  1386             1810             1809             CONDUIT          123.8    0.9372    0.0130
  1395             1808             1807             CONDUIT          216.6    0.1800    0.0130
  1397             1806             1805             CONDUIT          226.3    0.1591    0.0130
  1400             1898             1800             CONDUIT          329.9    0.1789    0.0130
  1405             1896             1897             CONDUIT          461.7    0.0178    0.0130
  1408             1804             1895             CONDUIT          592.6    0.3596    0.0130
  1412             1923             65               CONDUIT         1124.1    1.5730    0.0130
  1413             1801             1414             CONDUIT         1370.4    0.2486    0.0130
  1415             1414             1410             CONDUIT         1536.1    0.2650    0.0130
  1562             1037             392              CONDUIT           18.7    3.1644    0.0130
  1563             392              1039             CONDUIT           18.7    0.1603    0.0130
  1567             1049             1050             CONDUIT           25.9    7.7527    0.0240
  1568             1052             888              CONDUIT           26.0    0.6537    0.0130
  1569             791              792              CONDUIT           27.9    0.8961    0.0130
  1570             562              855              CONDUIT           31.0    1.6135    0.0130
  1573             787              788              CONDUIT           35.6    2.9496    0.0130
  1576             597              1801             CONDUIT          229.9    0.3232    0.0130
  1577             1067             865              CONDUIT           54.7    3.1798    0.0240
  1578             1069             882              CONDUIT           55.9    1.4021    0.0130
  1579             1071             386              CONDUIT           58.3    0.3429    0.0130
  1581             1050             864              CONDUIT           65.6    3.2967    0.0240
  1585             889              JCT-12           CONDUIT           72.9    1.2628    0.0130
  1586             858              P8-13            CONDUIT           80.2    1.2469    0.0130
  1590             896              341              CONDUIT           94.8    3.0192    0.0130
  1591             855              854              CONDUIT           95.4    2.0330    0.0130
  1592             592              1088-2           CONDUIT           96.2    0.5924    0.0130
  1593             879              P8-13            CONDUIT           97.8    0.2044    0.0130
  1594             1029             1092             CONDUIT          104.1    0.6531    0.0130
  1595             1039             1035             CONDUIT          107.7    0.1021    0.0130
  1597             865              1049             CONDUIT          112.0    2.0175    0.0240
  1599             887              1069             CONDUIT          115.3    1.4662    0.0130
  1600             1110             387              CONDUIT          130.2    0.4840    0.0130
  1601             1101             JCT-34           CONDUIT          158.9    0.1259    0.0130
  1602             895              1103             CONDUIT          130.1    1.9029    0.0130
  1603             384              1801             CONDUIT          156.4    0.2621    0.0130
  1606             1035             1110             CONDUIT          137.7    0.0872    0.0130
  1607             857              889              CONDUIT          139.6    0.7950    0.0130
  1608             905              791              CONDUIT          143.8    2.6788    0.0130
  1609             908              1052             CONDUIT          144.0    0.6991    0.0130
  1610             901              902              CONDUIT          146.2    0.6291    0.0130
  1612             788              905              CONDUIT          149.9    0.1067    0.0130
  1613             886              885              CONDUIT          151.1    1.2441    0.0130
  1614             386              1101             CONDUIT          151.8    0.2108    0.0130
  1616             387              1071             CONDUIT          161.6    0.1238    0.0130
  1618             2428             851              CONDUIT          174.5    0.9053    0.0130
  1620             272              1037             CONDUIT          182.9    0.0711    0.0130
  1621             883              867              CONDUIT          184.5    0.4228    0.0130
  1622             375              883              CONDUIT          185.0    0.5244    0.0130
  1623             1131             597              CONDUIT          185.1    0.2215    0.0130
  1624             853              909              CONDUIT          195.3    2.2894    0.0130
  1625             1092             592              CONDUIT          198.2    0.4035    0.0130
  1626             854              853              CONDUIT          204.8    2.3058    0.0130
  1627             864              863              CONDUIT          206.6    2.1446    0.0240
  1630             880              1067             CONDUIT          209.4    3.1342    0.0240
  1631             439              1131             CONDUIT          212.5    0.2729    0.0130
  1632             238              907              CONDUIT          214.6    4.0335    0.0130
  1633             882              375              CONDUIT          225.8    0.4543    0.0130
  1635             341              JCT-60           CONDUIT          244.2    0.8140    0.0130
  1636             870              DIV-10           CONDUIT          315.6    0.7906    0.0130
  1637             860              861              CONDUIT          255.9    0.5042    0.0240
  1638             1088-2           1063             CONDUIT          256.7    0.0234    0.0130
  1639             863              180              CONDUIT          265.6    2.8250    0.0240
  1641             792              901              CONDUIT          276.5    0.5208    0.0130
  1642             1103             1153             CONDUIT          279.1    1.7090    0.0130
  1643             884              895              CONDUIT          281.8    0.6016    0.0130
  1644             888              857              CONDUIT          284.0    1.4719    0.0130
  1645             1153             870              CONDUIT          286.9    1.7046    0.0130
  1646             851              862              CONDUIT          288.4    0.6796    0.0240
  1647             867              858              CONDUIT          290.4    0.6508    0.0130
  1649             862              884              CONDUIT          296.6    0.6744    0.0130
  1651             885              887              CONDUIT          301.3    0.2091    0.0130
  1652             180              860              CONDUIT          303.3    1.2299    0.0240
  1653             909              2428             CONDUIT          306.8    2.9577    0.0130
  1656             385              384              CONDUIT          319.8    0.1501    0.0130
  1657             906              895              CONDUIT          322.5    4.3747    0.0130
  1658             1170             866              CONDUIT          336.7    3.0876    0.0240
  1659             589              1029             CONDUIT          317.7    0.4848    0.0130
  1660             866              880              CONDUIT          359.4    2.2765    0.0240
  1661             907              906              CONDUIT          363.8    3.5373    0.0130
  1664             904              1923             CONDUIT          391.7    0.4902    0.0130
  1665             869              868              CONDUIT          393.2    0.4984    0.0130
  1666             JCT-48           904              CONDUIT          210.3    0.9986    0.0130
  1667             1063             439              CONDUIT          411.5    0.0292    0.0130
  1668             859              1170             CONDUIT          460.8    0.0347    0.0240
  1669             DIV-170          869              CONDUIT          484.6    1.8123    0.0240
  1670             868              879              CONDUIT          489.0    0.3784    0.0130
  1671             861              2242             CONDUIT          612.4    0.4230    0.0240
  1673             399              416              CONDUIT           51.4    0.5057    0.0130
  1674             416              896              CONDUIT           27.5    0.2182    0.0130
  170-OVERFLOW     DIV-170          869              CONDUIT          499.0    1.7599    0.0150
  1731             1818             P8-12            CONDUIT          640.6    1.0740    0.0130
  1744             1809             1808             CONDUIT           61.9    0.0335    0.0130
  1746             676              562              CONDUIT          122.7    2.2998    0.0130
  1748             1955             272              CONDUIT          155.8    1.3028    0.0130
  1752             1952             859              CONDUIT          190.6    0.8028    0.0240
  1753             JCT-22           243              CONDUIT          244.4    4.8216    0.0240
  1755             1965             1893             CONDUIT          274.3    3.3670    0.0240
  1756             243              676              CONDUIT          303.2    3.9180    0.0130
  1761             1759             1760             CONDUIT           32.9    0.4866    0.0130
  1768             1760             1762             CONDUIT          646.2    0.4952    0.0130
  1769             1762             1763             CONDUIT           44.9    2.5411    0.0130
  1770             1763             1764             CONDUIT          352.8    2.2396    0.0130
  1771             1764             1765             CONDUIT          131.9    1.0085    0.0130
  1772             1765             1766             CONDUIT          143.2    3.5929    0.0130
  1773             1766             1767             CONDUIT          108.2    2.9954    0.0130
  1776             1767             JCT-16           CONDUIT          143.7    2.4499    0.0130
  1793             1410             1792             CONDUIT          802.2    0.9038    0.0130
  1796             1792             1821             CONDUIT          304.9    0.3214    0.0130
  1800             859              1170             CONDUIT          471.2    0.0340    0.0300
  1801             1170             866              CONDUIT          343.6    3.0250    0.0300
  1802             866              880              CONDUIT          373.0    2.1937    0.0300
  1803             880              1067             CONDUIT          218.2    3.0071    0.0300
  1804             1067             865              CONDUIT           69.3    2.5134    0.0300
  1805             865              1049             CONDUIT          124.0    1.8231    0.0300
  1806             1049             1050             CONDUIT           47.4    4.2259    0.0300
  1807             1050             864              CONDUIT           76.3    2.8317    0.0300
  1808             864              863              CONDUIT          213.3    2.0771    0.0300
  1809             863              180              CONDUIT          284.6    2.6360    0.0300
  1810             1764             1765             CONDUIT          143.4    4.3767    0.0160
  1811             1762             1763             CONDUIT           60.0    2.3810    0.0160
  1812             676              562              CONDUIT          131.3    1.5237    0.0160
  1813             562              855              CONDUIT           39.9    4.0991    0.0100
  1814             788              905              CONDUIT          153.0    3.2704    0.0160
  1815             787              788              CONDUIT           36.9    2.7105    0.0100
  1816             272              1037             CONDUIT           45.7    3.5065    0.0300
  1817             243              676              CONDUIT          305.5    3.9304    0.0160
  1818             238              907              CONDUIT          215.9    3.7082    0.0160
  1819             1029             1092             CONDUIT          135.2    1.1099    0.0160
  1820             902              903              CONDUIT          207.7    0.5103    0.0130
  1821             902              903              CONDUIT          208.8    0.4789    0.0300
  1822             901              902              CONDUIT          148.7    1.3453    0.0300
  1823             879              P8-13            CONDUIT          131.8    3.7968    0.0160
  1824             1767             JCT-16           CONDUIT          153.9    5.3152    0.0300
  1825             1766             1767             CONDUIT          113.5    0.8814    0.0160
  1826             387              1071             CONDUIT          141.3    0.7078    0.0160
  1827             855              854              CONDUIT           99.2    3.0960    0.0160
  1828             868              879              CONDUIT          495.5    0.4036    0.0300
  1829             1037             392              CONDUIT          157.3    0.2403    0.0300
  1830             1092             592              CONDUIT          176.2    2.8388    0.0300
  1831             907              906              CONDUIT          364.8    3.3145    0.0160
  1832             906              895              CONDUIT          326.7    4.2701    0.0160
  1833             1071             386              CONDUIT           69.4    0.1440    0.0100
  1834             386              1101             CONDUIT          156.0    0.0769    0.0300
  1835             592              1088-2           CONDUIT          121.0    0.0992    0.0300
  1836             854              853              CONDUIT          211.7    1.8899    0.0160
  1837             853              909              CONDUIT          202.2    2.4733    0.0130
  1838             909              2428             CONDUIT          315.9    2.8505    0.0130
  1839             65               1818             CONDUIT          425.7   10.1079    0.0130
  1848             1847             1846             CONDUIT          400.2    1.5021    0.0130
  1852             1846             P8-17            CONDUIT          528.4    2.9328    0.0130
  1864             1861             P8-16            CONDUIT         1622.1    0.1917    0.0130
  1869             1867             1414             CONDUIT           82.4    0.1213    0.0100
  1873             1866             1867             CONDUIT          422.0    0.0237    0.0100
  1879             662              1876             CONDUIT           98.4    0.4982    0.0130
  1880             1876             1874             CONDUIT          272.6    2.4807    0.0130
  1881             1874             1875             CONDUIT          285.9    1.9031    0.0130
  1883             1875             P8-7             CONDUIT           78.3    8.5564    0.0130
  1885             1884             1875             CONDUIT          121.9    6.0677    0.0130
  1900             1800             1801             CONDUIT          177.3    0.2769    0.0130
  1957             1954             1955             CONDUIT          236.9    0.0089    0.0130
  2077             2069             2076             CONDUIT          518.6    0.0964    0.0130
  2080             2076             P8-16            CONDUIT          238.8    1.3821    0.0130
  2091             2087             2069             CONDUIT          475.5    0.0421    0.0100
  2111             P8-17            2087             CONDUIT          162.0    0.6173    0.0130
  2141             JCT-22           2140             CONDUIT          118.7    0.5898    0.0130
  2142             2140             P8-6             CONDUIT          149.3    0.2009    0.0130
  2172             2169             2171             CONDUIT          115.4    0.4332    0.0100
  2173             2171             OS-2168          CONDUIT          161.0    0.9316    0.0100
  2175             OS-2168          1410             CONDUIT          175.4    3.8618    0.0130
  2244             P8-13            2242             CONDUIT          208.1    0.1922    0.0100
  2245             2242             P8-14            CONDUIT         1027.5    0.3893    0.0100
  2258             2256             2255             CONDUIT          126.9    5.9541    0.0130
  2259             2255             P8-13            CONDUIT         1648.7    0.8771    0.0130
  2268             P8-11            2266             CONDUIT          749.2    0.8943    0.0100
  2269             2266             P8-13            CONDUIT         1617.1    0.6370    0.0100
  2274             1807             1806             CONDUIT           60.4    2.0213    0.0240
  2275             1805             1804             CONDUIT           56.0    0.9293    0.0130
  2276             1895             1896             CONDUIT           39.0    2.1519    0.0130
  2277             1897             1898             CONDUIT           40.0    1.0739    0.0130
  2282             JCT-42           P8-15            CONDUIT          728.9    0.3430    0.0300
  2344             P8-3             JCT-38           CONDUIT          527.3    4.9371    0.0100
  2346             2339             P8-11            CONDUIT         1205.7    3.0701    0.0100
  2350             2347             2349             CONDUIT          544.0    1.8387    0.0300
  2351             2349             JCT-62           CONDUIT         1183.6    3.2121    0.0100
  2359             2358             1876             CONDUIT           92.0    5.8386    0.0130
  2371             2369             2370             CONDUIT           76.6    2.6127    0.0300
  2379             2370             LP-2380          CONDUIT          882.0    1.0204    0.0100
  2383             2381             2382             CONDUIT          891.1    0.4713    0.0100
  2384             2382             2076             CONDUIT          354.2    0.1412    0.0100
  CDT-109          903              JCT-48           CONDUIT          188.5    0.5572    0.0130
  CDT-129          JCT-60           P8-5             CONDUIT            1.0 -384.8000    0.0100
  CDT-131          JCT-62           2355             CONDUIT            9.1   34.9652    0.0240
  CDT-15           2428             P8-14            CONDUIT         1758.9    1.2509    0.0130
  CDT-17           851              1103             CONDUIT          988.1    0.9381    0.0130
  CDT-19           895              1103             CONDUIT          143.1    1.5722    0.0130
  CDT-21           1103             1153             CONDUIT          294.4    1.3942    0.0130
  CDT-23           1153             870              CONDUIT          306.6    1.6194    0.0130
  CDT-25           JCT-10           P8-15            CONDUIT          313.1    1.1724    0.0130
  CDT-27           870              DIV-10           CONDUIT          323.9    1.4398    0.0100
  CDT-29           DIV-10           1808             CONDUIT          878.6    0.6829    0.0130
  CDT-31           DIV-10           JCT-10           CONDUIT          147.3    0.7999    0.0130
  CDT-33           1760             1762             CONDUIT          717.0    2.6014    0.0350
  CDT-35           1759             1760             CONDUIT           36.8    2.7066    0.0130
  CDT-37           1763             1764             CONDUIT          500.0    2.2275    0.0100
  CDT-39           JCT-12           P8-11            CONDUIT           82.3    0.0243    0.0300
  CDT-43           JCT-16           P8-11            CONDUIT          402.8    2.4410    0.0100
  CDT-47           860              861              CONDUIT          382.2    1.4729    0.0130
  CDT-49           861              2242             CONDUIT          139.3    2.5272    0.0300
  CDT-53           P8-6             2347             CONDUIT          420.1    0.4761    0.0300
  CDT-57           399              JCT-24           CONDUIT          393.3    2.7531    0.0300
  CDT-59           JCT-24           JCT-26           CONDUIT          139.2    0.8619    0.0130
  CDT-61           JCT-26           JCT-28           CONDUIT          302.0    2.6832    0.0130
  CDT-63           JCT-28           JCT-32           CONDUIT          563.3    1.5546    0.0130
  CDT-65           JCT-32           JCT-30           CONDUIT          502.9    1.4060    0.0130
  CDT-67           JCT-30           P8-12            CONDUIT          312.5    5.0870    0.0100
  CDT-69           589              1029             CONDUIT          350.8    0.8745    0.0130
  CDT-73           JCT-24           JCT-26           CONDUIT          144.0    2.2221    0.0130
  CDT-75           416              896              CONDUIT           35.3    3.9111    0.0100
  CDT-77           JCT-34           385              CONDUIT          121.5    0.1811    0.0130
  CDT-79           JCT-38           2339             CONDUIT          277.3    2.8857    0.0100
  CDT-81           JCT-36           JCT-40           CONDUIT          104.4    1.9168    0.0130
  CDT-83           905              JCT-36           CONDUIT          151.5    4.1089    0.0300
  CDT-85           JCT-40           JCT-38           CONDUIT          566.6    3.3553    0.0130
  CDT-87           792              JCT-40           CONDUIT          209.0    2.7460    0.0130
  CDT-89           1765             P8-11            CONDUIT          100.0   22.2620    0.0130
  CDT-91           180              860              CONDUIT          734.3    1.1835    0.0130
  COTTONWOOD_PARK_OVERFLOW P8-12            2256             CONDUIT           20.0    5.0063    0.0300
  I-90-5-OVERFLOW  P8-7             2369             CONDUIT          120.0    0.2083    0.0130
  I-90-NORTH-OVERFLOW 2355             2358             CONDUIT           67.0    0.7463    0.0130
  MITCHELL_POND    P8-16            1866             CONDUIT           79.0    5.7055    0.0130
  MITCHELL_POND_OVERFLOW P8-16            2169             CONDUIT          500.0    0.1000    0.0130
  OS-34            LP-2380          2381             CONDUIT          150.0    0.3333    0.0130
  ROADWAY-1        1809             1808             CONDUIT           60.0    0.0350    0.0100
  ROADWAY-2        1807             1806             CONDUIT           60.0    2.0338    0.0100
  ROADWAY-3        1805             1804             CONDUIT           55.0    0.8000    0.0100
  ROADWAY-4        1895             1896             CONDUIT           40.0    0.3450    0.0100
  ROADWAY-5        1897             1898             CONDUIT           40.0    1.0751    0.0100
  ROADWAY-7        1955             272              CONDUIT          155.0    1.6196    0.0100
  ROADWAY-8        1818             P8-12            CONDUIT          130.0    0.1923    0.0100
  ROADWAY-9        1952             859              CONDUIT          190.0    0.8053    0.0100
  SUNFLOWER_PARK_R5_OVERFLOW P8-14            JCT-42           CONDUIT           60.0    8.3624    0.0130
  BOX_ORIFICE_R6   P8-15            1810             ORIFICE     
  CDT-13           P8-9             1847             ORIFICE     
  I-90-1           P8-5             1965             ORIFICE     
  I-90-4_ORIFICE   P8-10            1884             ORIFICE     
  I-90-5-ORIFICE   P8-7             589              ORIFICE     
  I90-3-ORIFICE    P8-6             1894             ORIFICE     
  MITCHELL_POND-ORIFICE P8-16            1866             ORIFICE     
  N_I90-ORIFICE    2355             662              ORIFICE     
  POND-I90-6-ORIFICE P8-8             1954             ORIFICE     
  POND_A-ORIFICE   P8-1             787              ORIFICE     
  POND_D-ORIFICE   P8-2             905              ORIFICE     
  POND_G-ORIFICE   P8-3             901              ORIFICE     
  POND_R3_ORIFICE  P8-12            DIV-170          ORIFICE     
  PRIVATE_POND_2097-ORIFICE P8-17            1861             ORIFICE     
  R1-ORIFICE       P8-11            886              ORIFICE     
  R2-ORIFICE       P8-4             908              ORIFICE     
  R4-ORIFICE-1     P8-13            2242             ORIFICE     
  R4-ORIFICE-2     P8-13            2242             ORIFICE     
  R4-ORIFICE-3     P8-13            2242             ORIFICE     
  R5-ORIFICE       P8-14            JCT-42           ORIFICE     
  R5-ORIFICE-2     P8-14            JCT-42           ORIFICE     
  SILVERADO        P8-9             1847             ORIFICE     
  WEIR-1417OVERTOP P8-1             788              WEIR        
  WEIR-R6          P8-15            1810             WEIR        
  
  
  *********************
  Cross Section Summary
  *********************
                                        Full     Full     Hyd.     Max.   No. of     Full
  Conduit          Shape               Depth     Area     Rad.    Width  Barrels     Flow
  ---------------------------------------------------------------------------------------
  1088-OVERFLOW    RECT_OPEN            3.00   900.00     2.94   300.00        1 22553.46
  1379             TRAPEZOIDAL          3.00    33.00     1.79    17.00        1  1879.70
  1382             1382                 9.34  1788.36     4.58   388.22        1 22038.20
  1386             1386                 7.45  1784.39     3.83   463.29        1 48330.10
  1395             1395                 7.91  1714.95     3.22   529.72        1 18141.57
  1397             1397                 7.68  1860.58     3.73   495.57        1 20417.82
  1400             1400                 8.30  1031.18     2.54   403.02        1  9286.79
  1405             1405                10.86   493.77     3.52   136.22        1  1741.24
  1408             1408                 7.90  1450.51     3.56   405.18        1 23180.32
  1412             1412                 7.84  5406.10     4.38  1229.25        1 207445.19
  1413             1413                 8.63   857.20     2.28   374.44        1  8451.29
  1415             1415                 8.28   818.57     2.36   344.40        1  8539.30
  1562             CIRCULAR             2.00     3.14     0.50     2.00        1    40.24
  1563             RECT_CLOSED          3.00    18.00     1.00     6.00        1    82.39
  1567             CIRCULAR             3.00     7.07     0.75     3.00        1   100.59
  1568             CIRCULAR             3.00     7.07     0.75     3.00        1    53.93
  1569             CIRCULAR             2.25     3.98     0.56     2.25        1    29.32
  1570             CIRCULAR             2.00     3.14     0.50     2.00        1    28.74
  1573             CIRCULAR             1.50     1.77     0.38     1.50        1    18.04
  1576             RECT_CLOSED          3.00    18.00     1.00     6.00        1   116.98
  1577             CIRCULAR             3.00     7.07     0.75     3.00        1    64.42
  1578             CIRCULAR             2.25     3.98     0.56     2.25        1    36.67
  1579             CIRCULAR             2.25     3.98     0.56     2.25        1    18.14
  1581             CIRCULAR             3.00     7.07     0.75     3.00        1    65.60
  1585             CIRCULAR             3.00     7.07     0.75     3.00        1    74.95
  1586             CIRCULAR             2.50     4.91     0.63     2.50        1    45.80
  1590             CIRCULAR             3.00     7.07     0.75     3.00        1   115.89
  1591             CIRCULAR             2.00     3.14     0.50     2.00        1    32.26
  1592             RECT_CLOSED          3.00    18.00     1.00     6.00        1   158.37
  1593             CIRCULAR             3.00     7.07     0.75     3.00        1    30.16
  1594             CIRCULAR             3.00     7.07     0.75     3.00        1    53.90
  1595             RECT_CLOSED          3.00    18.00     1.00     6.00        1    65.75
  1597             CIRCULAR             3.00     7.07     0.75     3.00        1    51.32
  1599             CIRCULAR             2.25     3.98     0.56     2.25        1    37.50
  1600             RECT_CLOSED          3.00    18.00     1.00     6.00        1   143.14
  1601             RECT_CLOSED          3.00    18.00     1.00     6.00        1    73.00
  1602             HORIZ_ELLIPSE        3.00    11.42     0.92     4.75        1   170.17
  1603             RECT_CLOSED          3.00    18.00     1.00     6.00        1   105.34
  1606             RECT_CLOSED          3.00    18.00     1.00     6.00        1    60.75
  1607             CIRCULAR             3.00     7.07     0.75     3.00        1    59.47
  1608             CIRCULAR             2.00     3.14     0.50     2.00        1    37.03
  1609             CIRCULAR             3.00     7.07     0.75     3.00        1    55.77
  1610             CIRCULAR             3.00     7.07     0.75     3.00        1    52.90
  1612             CIRCULAR             1.50     1.77     0.38     1.50        1     3.43
  1613             CIRCULAR             2.25     3.98     0.56     2.25        1    34.54
  1614             CIRCULAR             2.25     3.98     0.56     2.25        1    14.22
  1616             CIRCULAR             2.25     3.98     0.56     2.25        1    10.90
  1618             CIRCULAR             3.00     7.07     0.75     3.00        1    63.46
  1620             CIRCULAR             1.50     1.77     0.38     1.50        1     2.80
  1621             CIRCULAR             2.50     4.91     0.63     2.50        1    26.67
  1622             CIRCULAR             2.25     3.98     0.56     2.25        1    22.43
  1623             RECT_CLOSED          3.00    18.00     1.00     6.00        1    96.84
  1624             CIRCULAR             2.00     3.14     0.50     2.00        1    34.23
  1625             HORIZ_ELLIPSE        3.00    11.42     0.92     4.00        1    78.36
  1626             CIRCULAR             2.00     3.14     0.50     2.00        1    34.35
  1627             CIRCULAR             3.00     7.07     0.75     3.00        1    52.91
  1630             CIRCULAR             3.00     7.07     0.75     3.00        1    63.96
  1631             RECT_CLOSED          3.00    18.00     1.00     6.00        1   107.49
  1632             CIRCULAR             1.50     1.77     0.38     1.50        1    21.10
  1633             CIRCULAR             2.25     3.98     0.56     2.25        1    20.88
  1635             CIRCULAR             3.00     7.07     0.75     3.00        1    60.18
  1636             HORIZ_ELLIPSE        3.00    11.42     0.92     4.75        1   109.68
  1637             CIRCULAR             3.00     7.07     0.75     3.00        1    25.65
  1638             RECT_CLOSED          3.00    18.00     1.00     6.00        1    31.46
  1639             CIRCULAR             3.00     7.07     0.75     3.00        1    60.72
  1641             CIRCULAR             2.25     3.98     0.56     2.25        1    22.35
  1642             HORIZ_ELLIPSE        3.00    11.42     0.92     4.75        1   161.27
  1643             CIRCULAR             3.00     7.07     0.75     3.00        1    51.73
  1644             CIRCULAR             3.00     7.07     0.75     3.00        1    80.92
  1645             HORIZ_ELLIPSE        3.00    11.42     0.92     4.75        1   161.06
  1646             CIRCULAR             3.00     7.07     0.75     3.00        1    29.78
  1647             CIRCULAR             2.50     4.91     0.63     2.50        1    33.09
  1649             CIRCULAR             3.00     7.07     0.75     3.00        1    54.77
  1651             CIRCULAR             2.50     4.91     0.63     2.50        1    18.76
  1652             CIRCULAR             3.00     7.07     0.75     3.00        1    40.07
  1653             CIRCULAR             2.00     3.14     0.50     2.00        1    38.91
  1656             RECT_CLOSED          3.00    18.00     1.00     6.00        1    79.71
  1657             CIRCULAR             2.00     3.14     0.50     2.00        1    47.32
  1658             CIRCULAR             3.00     7.07     0.75     3.00        1    63.48
  1659             CIRCULAR             3.00     7.07     0.75     3.00        1    46.44
  1660             CIRCULAR             3.00     7.07     0.75     3.00        1    54.51
  1661             CIRCULAR             2.00     3.14     0.50     2.00        1    42.55
  1664             CIRCULAR             3.00     7.07     0.75     3.00        1    46.70
  1665             CIRCULAR             3.33     8.73     0.83     3.33        1    62.36
  1666             CIRCULAR             3.00     7.07     0.75     3.00        1    66.65
  1667             RECT_OPEN            3.00    18.00     1.50     6.00        1    46.04
  1668             CIRCULAR             3.00     7.07     0.75     3.00        1     6.73
  1669             CIRCULAR             3.00     7.07     0.75     3.00        1    48.64
  1670             CIRCULAR             3.00     7.07     0.75     3.00        1    41.03
  1671             CIRCULAR             2.50     4.91     0.63     2.50        1    14.45
  1673             CIRCULAR             1.50     1.77     0.38     1.50        1     7.47
  1674             CIRCULAR             1.50     1.77     0.38     1.50        1     4.91
  170-OVERFLOW     TRIANGULAR           3.00    60.00     1.48    40.00        1  1025.65
  1731             CIRCULAR             6.00    28.27     1.50     6.00        1   438.90
  1744             CIRCULAR             2.00     3.14     0.50     2.00        2     4.14
  1746             CIRCULAR             2.00     3.14     0.50     2.00        1    34.31
  1748             CIRCULAR             2.00     3.14     0.50     2.00        1    25.82
  1752             CIRCULAR             3.00     7.07     0.75     3.00        1    32.37
  1753             CIRCULAR             3.00     7.07     0.75     3.00        1    79.33
  1755             CIRCULAR             3.00     7.07     0.75     3.00        1    66.29
  1756             CIRCULAR             2.00     3.14     0.50     2.00        1    44.78
  1761             CIRCULAR             1.50     1.77     0.38     1.50        1     7.33
  1768             CIRCULAR             1.50     1.77     0.38     1.50        1     7.39
  1769             CIRCULAR             2.00     3.14     0.50     2.00        1    36.06
  1770             CIRCULAR             2.00     3.14     0.50     2.00        1    33.85
  1771             CIRCULAR             2.00     3.14     0.50     2.00        1    22.72
  1772             CIRCULAR             2.00     3.14     0.50     2.00        1    42.88
  1773             CIRCULAR             2.00     3.14     0.50     2.00        1    39.15
  1776             CIRCULAR             2.00     3.14     0.50     2.00        1    35.41
  1793             1793                 8.49  2422.19     6.42   382.74        1 90887.13
  1796             1796                11.09  2898.05     4.17   691.72        1 48629.36
  1800             TRIANGULAR           5.00   250.00     2.49   100.00        1   418.94
  1801             TRIANGULAR           5.00   250.00     2.49   100.00        1  3954.15
  1802             TRIANGULAR           5.00   250.00     2.49   100.00        1  3367.28
  1803             TRIANGULAR           5.00   250.00     2.49   100.00        1  3942.43
  1804             TRIANGULAR           5.00   250.00     2.49   100.00        1  3604.30
  1805             TRIANGULAR           5.00   250.00     2.49   100.00        1  3069.68
  1806             TRIANGULAR           5.00   250.00     2.49   100.00        1  4673.60
  1807             TRIANGULAR           5.00   250.00     2.49   100.00        1  3825.74
  1808             TRIANGULAR           5.00   250.00     2.49   100.00        1  3276.55
  1809             TRIANGULAR           5.00   250.00     2.49   100.00        1  3691.19
  1810             TRAPEZOIDAL          2.00    80.00     1.33    60.00        1  1878.86
  1811             TRAPEZOIDAL          2.00   100.00     1.42    70.00        1  1814.34
  1812             TRAPEZOIDAL          2.00   100.00     1.42    70.00        1  1451.41
  1813             TRAPEZOIDAL          2.00   100.00     1.42    70.00        1  3808.96
  1814             TRAPEZOIDAL          2.00   100.00     1.42    70.00        1  2126.38
  1815             TRAPEZOIDAL          2.00   100.00     1.42    70.00        1  3097.32
  1816             TRIANGULAR           2.00    45.00     1.00    45.00        1   416.30
  1817             TRAPEZOIDAL          2.00   100.00     1.42    70.00        1  2331.10
  1818             TRAPEZOIDAL          2.00   100.00     1.42    70.00        1  2264.26
  1819             TRAPEZOIDAL          2.00   100.00     1.42    70.00        1  1238.73
  1820             CIRCULAR             3.00     7.07     0.75     3.00        1    47.65
  1821             TRIANGULAR           3.00    30.00     1.44    20.00        1   130.94
  1822             TRIANGULAR           3.00    30.00     1.44    20.00        1   219.46
  1823             TRAPEZOIDAL          2.00   100.00     1.42    70.00        1  2291.13
  1824             TRAPEZOIDAL          2.00   140.00     1.55    90.00        1  2143.22
  1825             TRAPEZOIDAL          3.00   180.00     1.99    90.00        1  2485.92
  1826             TRAPEZOIDAL          2.00   100.00     1.42    70.00        1   989.26
  1827             TRAPEZOIDAL          2.00   100.00     1.42    70.00        1  2068.90
  1828             TRIANGULAR           2.00    30.00     0.99    30.00        1    93.85
  1829             TRIANGULAR           3.00    30.00     1.44    20.00        1    92.75
  1830             TRIANGULAR           3.00    30.00     1.44    20.00        1   318.79
  1831             TRAPEZOIDAL          2.00   100.00     1.42    70.00        1  2140.67
  1832             TRAPEZOIDAL          2.00   100.00     1.42    70.00        1  2429.76
  1833             TRIANGULAR           3.00    30.00     1.44    20.00        1   215.43
  1834             TRIANGULAR           3.00    30.00     1.44    20.00        1    52.48
  1835             TRIANGULAR           3.00    30.00     1.44    20.00        1    59.58
  1836             TRAPEZOIDAL          2.00   100.00     1.42    70.00        1  1616.44
  1837             TRAPEZOIDAL          2.00   100.00     1.42    70.00        1  2275.94
  1838             TRAPEZOIDAL          2.00   100.00     1.42    70.00        1  2443.34
  1839             1412                 7.84  5406.10     4.38  1229.25        1 525850.86
  1848             CIRCULAR             2.50     4.91     0.63     2.50        1    50.27
  1852             1852                 2.23  1168.13     1.72   678.17        1 32768.33
  1864             CIRCULAR             2.00     3.14     0.50     2.00        1     9.91
  1869             TRAPEZOIDAL          5.00   100.00     3.09    30.00        1  1098.22
  1873             TRAPEZOIDAL          5.00   100.00     3.09    30.00        1   485.30
  1879             CIRCULAR             1.50     1.77     0.38     1.50        1     7.41
  1880             1880                 3.84   683.08     1.87   363.56        1 18671.07
  1881             1881                12.69  3394.80     7.73   433.85        1 209299.34
  1883             1883                 5.18   360.53     2.26   158.40        1 20735.19
  1885             1885                15.64  2692.55     9.78   267.91        1 346603.20
  1900             RECT_CLOSED          6.00    72.00     2.00    12.00        2   687.51
  1957             1957                 7.58  3503.92     5.39   646.06        1 11591.86
  2077             2077                 4.71 16332.50     3.71  4387.85        1 138857.37
  2080             2080                 5.15 11212.94     3.66  3050.01        1 357951.32
  2091             TRAPEZOIDAL          3.00  1200.00     1.71   700.00        1  5238.13
  2111             TRAPEZOIDAL          3.00   975.00     1.77   550.00        1 12825.20
  2141             2141                10.79  4422.07     5.53   796.42        1 121354.28
  2142             2142                10.79  4422.07     5.53   796.42        1 70831.30
  2172             TRAPEZOIDAL          2.00  2040.00     1.96  1040.00        1 31260.83
  2173             TRAPEZOIDAL          2.00  2040.00     1.96  1040.00        1 45843.33
  2175             2175                 8.49  2422.19     6.42   382.74        1 187869.29
  2244             TRAPEZOIDAL          5.00  4750.00     3.28  1450.00        1 68262.61
  2245             TRAPEZOIDAL          1.50   900.00     1.20   750.00        1  9422.66
  2258             2258                 9.71  7383.80     5.53  1329.29        1 644150.95
  2259             2259                 9.71  7383.80     5.53  1329.29        1 247227.35
  2268             TRAPEZOIDAL          1.00    41.00     0.96    42.00        1   559.64
  2269             TRAPEZOIDAL          1.00    41.00     0.96    42.00        1   472.31
  2274             CIRCULAR             2.50     4.91     0.63     2.50        2    31.59
  2275             RECT_CLOSED          2.70    38.61     1.14    14.30        1   463.10
  2276             RECT_CLOSED          5.20    36.40     1.49     7.00        2   796.89
  2277             ARCH                 5.50    47.67     1.65    11.00        1   786.89
  2282             DUMMY                0.00     0.00     0.00     0.00        1     0.00
  2344             TRAPEZOIDAL          1.00    50.00     0.83    60.00        1  1460.35
  2346             TRAPEZOIDAL          1.00    50.00     0.83    60.00        1  1151.60
  2350             TRAPEZOIDAL          4.00   112.00     1.98    56.00        1  1184.40
  2351             TRAPEZOIDAL          4.00   112.00     1.98    56.00        1  4696.40
  2359             2359                 3.84   683.08     1.87   363.56        1 28644.23
  2371             TRAPEZOIDAL          2.00    26.00     1.21    21.00        1   236.34
  2379             TRAPEZOIDAL          2.00    26.00     1.21    21.00        1   443.11
  2383             TRAPEZOIDAL          1.00   310.00     0.97   320.00        1  3095.75
  2384             TRAPEZOIDAL          1.00   310.00     0.97   320.00        1  1694.15
  CDT-109          CIRCULAR             3.00     7.07     0.75     3.00        1    49.79
  CDT-129          DUMMY                0.00     0.00     0.00     0.00        1     0.00
  CDT-131          DUMMY                0.00     0.00     0.00     0.00        1     0.00
  CDT-15           TRAPEZOIDAL          1.00    45.00     0.82    55.00        1   502.66
  CDT-17           TRAPEZOIDAL          1.00    45.00     0.82    55.00        1   435.30
  CDT-19           TRAPEZOIDAL          1.00    45.00     0.82    55.00        1   563.53
  CDT-21           TRAPEZOIDAL          1.00    45.00     0.82    55.00        1   530.68
  CDT-23           TRAPEZOIDAL          1.00    45.00     0.82    55.00        1   571.93
  CDT-25           DUMMY                0.00     0.00     0.00     0.00        1     0.00
  CDT-27           TRAPEZOIDAL          1.00    45.00     0.82    55.00        1   701.06
  CDT-29           TRAPEZOIDAL          1.00    45.00     0.82    55.00        1   371.40
  CDT-31           HORIZ_ELLIPSE        3.00    11.42     0.92     4.75        1   110.33
  CDT-33           TRIANGULAR           3.00   120.00     1.50    80.00        1  1074.77
  CDT-35           TRAPEZOIDAL          1.00   100.02     0.98   100.04        1  1856.50
  CDT-37           TRAPEZOIDAL          1.00    30.00     0.75    40.00        1   548.33
  CDT-39           DUMMY                0.00     0.00     0.00     0.00        1     0.00
  CDT-43           DUMMY                0.00     0.00     0.00     0.00        1     0.00
  CDT-47           TRAPEZOIDAL          4.00   560.00     3.10   180.00        1 16531.73
  CDT-49           TRAPEZOIDAL          4.00   560.00     3.10   180.00        1  9383.62
  CDT-53           TRAPEZOIDAL          4.00   112.00     1.98    56.00        1   602.70
  CDT-57           TRIANGULAR           2.00    20.00     0.98    20.00        1   162.24
  CDT-59           HORIZ_ELLIPSE        1.50     2.86     0.46     2.25        1    18.04
  CDT-61           CIRCULAR             3.00     7.07     0.75     3.00        1   109.25
  CDT-63           CIRCULAR             3.00     7.07     0.75     3.00        1    83.16
  CDT-65           CIRCULAR             3.00     7.07     0.75     3.00        1    79.09
  CDT-67           DUMMY                0.00     0.00     0.00     0.00        1     0.00
  CDT-69           TRAPEZOIDAL          1.00     2.00     0.45     4.00        1    12.50
  CDT-73           TRAPEZOIDAL          1.00    95.00     0.83   115.00        1  1424.72
  CDT-75           TRAPEZOIDAL          2.00   300.00     1.20   250.00        1  9954.76
  CDT-77           RECT_CLOSED          3.00    18.00     1.00     6.00        1    87.57
  CDT-79           TRAPEZOIDAL          1.00    50.00     0.83    60.00        1  1116.46
  CDT-81           TRAPEZOIDAL          1.00    45.00     0.82    55.00        1   622.23
  CDT-83           TRIANGULAR           2.00    20.00     0.98    20.00        1   198.20
  CDT-85           TRAPEZOIDAL          1.00    45.00     0.82    55.00        1   823.25
  CDT-87           TRAPEZOIDAL          1.00    45.00     0.82    55.00        1   744.75
  CDT-89           TRAPEZOIDAL          1.00    45.00     0.82    55.00        1  2120.53
  CDT-91           TRAPEZOIDAL          4.00   560.00     3.10   180.00        1 14818.82
  COTTONWOOD_PARK_OVERFLOW TRAPEZOIDAL          2.00   240.00     1.41   170.00        1  3346.35
  I-90-5-OVERFLOW  TRAPEZOIDAL          1.00   260.00     0.81   320.00        1  1181.12
  I-90-NORTH-OVERFLOW TRAPEZOIDAL          1.00   132.50     0.80   165.00        1  1130.25
  MITCHELL_POND    TRAPEZOIDAL          1.00    22.00     0.90    24.00        1   559.51
  MITCHELL_POND_OVERFLOW TRAPEZOIDAL          3.00   390.00     2.43   160.00        1  2550.13
  OS-34            TRAPEZOIDAL          1.00   325.00     0.59   550.00        1  1510.35
  ROADWAY-1        TRAPEZOIDAL          3.00  1350.00     2.25   600.00        1  6443.86
  ROADWAY-2        TRAPEZOIDAL          3.00  1350.00     2.25   600.00        1 49120.32
  ROADWAY-3        TRAPEZOIDAL          3.00  1350.00     2.25   600.00        1 30808.03
  ROADWAY-4        TRAPEZOIDAL          3.00  1350.00     2.25   600.00        1 20231.25
  ROADWAY-5        TRAPEZOIDAL          3.00  1350.00     2.25   600.00        1 35713.20
  ROADWAY-7        TRAPEZOIDAL          3.00   750.00     1.87   400.00        1 21564.38
  ROADWAY-8        TRAPEZOIDAL          3.00   750.00     1.87   400.00        1  7430.81
  ROADWAY-9        TRAPEZOIDAL          3.00   750.00     1.87   400.00        1 15205.95
  SUNFLOWER_PARK_R5_OVERFLOW TRAPEZOIDAL          2.00  1040.00     1.93   540.00        1 53201.95
  
  
  
  ****************
  Transect Summary
  ****************

  Transect 1382
  Area:  
              0.0002     0.0006     0.0014     0.0025     0.0039 
              0.0056     0.0077     0.0100     0.0127     0.0157 
              0.0192     0.0236     0.0289     0.0355     0.0433 
              0.0526     0.0637     0.0766     0.0913     0.1078 
              0.1258     0.1446     0.1642     0.1847     0.2059 
              0.2280     0.2509     0.2746     0.2991     0.3244 
              0.3506     0.3775     0.4053     0.4339     0.4633 
              0.4935     0.5245     0.5564     0.5890     0.6225 
              0.6568     0.6919     0.7278     0.7645     0.8020 
              0.8404     0.8795     0.9194     0.9596     1.0000 
  Hrad:  
              0.0202     0.0403     0.0605     0.0806     0.1008 
              0.1209     0.1411     0.1612     0.1814     0.2015 
              0.1945     0.1969     0.1979     0.2002     0.2079 
              0.2091     0.2151     0.2248     0.2370     0.2508 
              0.2769     0.3049     0.3322     0.3590     0.3853 
              0.4112     0.4367     0.4618     0.4866     0.5111 
              0.5354     0.5594     0.5832     0.6069     0.6303 
              0.6535     0.6767     0.6996     0.7225     0.7452 
              0.7678     0.7903     0.8127     0.8350     0.8572 
              0.8793     0.9014     0.9312     0.9657     1.0000 
  Width: 
              0.0077     0.0154     0.0232     0.0309     0.0386 
              0.0463     0.0540     0.0618     0.0695     0.0772 
              0.0982     0.1194     0.1458     0.1768     0.2078 
              0.2511     0.2957     0.3403     0.3849     0.4295 
              0.4541     0.4741     0.4942     0.5143     0.5343 
              0.5544     0.5745     0.5945     0.6146     0.6347 
              0.6547     0.6748     0.6949     0.7149     0.7350 
              0.7551     0.7751     0.7952     0.8153     0.8354 
              0.8554     0.8755     0.8956     0.9156     0.9357 
              0.9558     0.9758     0.9873     0.9937     1.0000 

  Transect 1386
  Area:  
              0.0001     0.0004     0.0009     0.0017     0.0027 
              0.0039     0.0054     0.0070     0.0090     0.0111 
              0.0135     0.0161     0.0189     0.0222     0.0265 
              0.0313     0.0366     0.0424     0.0507     0.0624 
              0.0763     0.0949     0.1164     0.1407     0.1663 
              0.1927     0.2198     0.2478     0.2765     0.3061 
              0.3364     0.3674     0.3990     0.4312     0.4641 
              0.4975     0.5315     0.5658     0.6005     0.6354 
              0.6705     0.7060     0.7417     0.7776     0.8139 
              0.8504     0.8872     0.9243     0.9619     1.0000 
  Hrad:  
              0.0192     0.0378     0.0564     0.0753     0.0943 
              0.1132     0.1322     0.1512     0.1703     0.1894 
              0.2086     0.2278     0.2469     0.2221     0.2227 
              0.2388     0.2555     0.2726     0.1849     0.1914 
              0.1835     0.1783     0.1995     0.2157     0.2475 
              0.2786     0.3090     0.3384     0.3672     0.3955 
              0.4251     0.4547     0.4840     0.5131     0.5424 
              0.5715     0.6013     0.6352     0.6688     0.7021 
              0.7353     0.7682     0.8010     0.8335     0.8658 
              0.8979     0.9295     0.9568     0.9840     1.0000 
  Width: 
              0.0053     0.0109     0.0168     0.0226     0.0285 
              0.0345     0.0404     0.0464     0.0524     0.0583 
              0.0643     0.0703     0.0763     0.0995     0.1186 
              0.1308     0.1429     0.1551     0.2741     0.3259 
              0.4160     0.5325     0.5837     0.6525     0.6724 
              0.6922     0.7121     0.7329     0.7538     0.7747 
              0.7921     0.8087     0.8252     0.8413     0.8563 
              0.8714     0.8846     0.8916     0.8985     0.9055 
              0.9125     0.9194     0.9264     0.9333     0.9403 
              0.9473     0.9546     0.9661     0.9776     1.0000 

  Transect 1395
  Area:  
              0.0002     0.0007     0.0015     0.0025     0.0035 
              0.0047     0.0061     0.0075     0.0092     0.0109 
              0.0128     0.0148     0.0176     0.0222     0.0283 
              0.0360     0.0453     0.0559     0.0677     0.0806 
              0.0946     0.1096     0.1255     0.1423     0.1602 
              0.1789     0.1987     0.2199     0.2432     0.2677 
              0.2937     0.3213     0.3503     0.3808     0.4128 
              0.4463     0.4808     0.5159     0.5517     0.5882 
              0.6253     0.6631     0.7016     0.7408     0.7806 
              0.8211     0.8623     0.9056     0.9520     1.0000 
  Hrad:  
              0.0248     0.0494     0.0832     0.1174     0.1495 
              0.1801     0.2089     0.2368     0.2641     0.2909 
              0.3173     0.3433     0.2312     0.2020     0.1986 
              0.2053     0.2219     0.2431     0.2669     0.2916 
              0.3192     0.3467     0.3738     0.4007     0.4273 
              0.4536     0.4801     0.4702     0.4988     0.5169 
              0.5357     0.5552     0.5751     0.5954     0.6150 
              0.6389     0.6752     0.7109     0.7460     0.7808 
              0.8152     0.8492     0.8829     0.9163     0.9494 
              0.9822     1.0147     0.9685     0.9853     1.0000 
  Width: 
              0.0072     0.0141     0.0180     0.0207     0.0234 
              0.0260     0.0287     0.0315     0.0342     0.0369 
              0.0396     0.0423     0.0757     0.1091     0.1418 
              0.1749     0.2038     0.2295     0.2532     0.2761 
              0.2961     0.3157     0.3353     0.3549     0.3745 
              0.3941     0.4135     0.4673     0.4871     0.5176 
              0.5480     0.5784     0.6089     0.6393     0.6710 
              0.6984     0.7119     0.7256     0.7394     0.7532 
              0.7669     0.7807     0.7945     0.8083     0.8221 
              0.8359     0.8496     0.9350     0.9661     1.0000 

  Transect 1397
  Area:  
              0.0008     0.0017     0.0027     0.0038     0.0051 
              0.0064     0.0078     0.0094     0.0111     0.0128 
              0.0147     0.0169     0.0202     0.0249     0.0310 
              0.0386     0.0477     0.0582     0.0701     0.0833 
              0.0976     0.1131     0.1297     0.1475     0.1665 
              0.1866     0.2079     0.2311     0.2562     0.2832 
              0.3121     0.3428     0.3748     0.4075     0.4409 
              0.4748     0.5093     0.5444     0.5801     0.6163 
              0.6531     0.6902     0.7277     0.7656     0.8037 
              0.8423     0.8812     0.9204     0.9599     1.0000 
  Hrad:  
              0.0382     0.0722     0.1033     0.1323     0.1598 
              0.1861     0.2114     0.2360     0.2593     0.2806 
              0.3021     0.2799     0.2046     0.1861     0.1839 
              0.1895     0.1994     0.2121     0.2265     0.2470 
              0.2675     0.2880     0.3085     0.3278     0.3481 
              0.3683     0.3886     0.3904     0.4021     0.4149 
              0.4287     0.4445     0.4724     0.5044     0.5362 
              0.5678     0.5989     0.6297     0.6602     0.6903 
              0.7230     0.7569     0.7907     0.8241     0.8574 
              0.8904     0.9232     0.9557     0.9881     1.0000 
  Width: 
              0.0208     0.0234     0.0261     0.0287     0.0313 
              0.0340     0.0366     0.0393     0.0420     0.0451 
              0.0481     0.0597     0.0978     0.1330     0.1682 
              0.2034     0.2385     0.2737     0.3089     0.3368 
              0.3646     0.3924     0.4203     0.4497     0.4781 
              0.5064     0.5348     0.5917     0.6371     0.6825 
              0.7279     0.7712     0.7935     0.8081     0.8223 
              0.8364     0.8506     0.8647     0.8788     0.8929 
              0.9035     0.9120     0.9205     0.9290     0.9375 
              0.9460     0.9545     0.9630     0.9715     1.0000 

  Transect 1400
  Area:  
              0.0025     0.0073     0.0125     0.0180     0.0240 
              0.0302     0.0369     0.0439     0.0513     0.0590 
              0.0671     0.0755     0.0843     0.0935     0.1031 
              0.1132     0.1236     0.1346     0.1459     0.1576 
              0.1698     0.1825     0.1955     0.2090     0.2229 
              0.2373     0.2521     0.2673     0.2829     0.2990 
              0.3155     0.3324     0.3498     0.3675     0.3858 
              0.4044     0.4235     0.4432     0.4643     0.4905 
              0.5322     0.5790     0.6265     0.6748     0.7254 
[...]
  1658                    1.00   0.05  0.00  0.00  0.00  0.95  0.00  0.00  0.79  0.00
  1659                    1.00   0.01  0.00  0.00  0.25  0.06  0.00  0.68  0.00  0.00
  1660                    1.00   0.05  0.00  0.00  0.01  0.95  0.00  0.00  0.00  0.00
  1661                    1.00   0.00  0.00  0.00  0.06  0.94  0.00  0.00  0.00  0.00
  1664                    1.00   0.02  0.00  0.00  0.00  0.98  0.00  0.00  0.00  0.00
  1665                    1.00   0.00  0.00  0.00  0.89  0.11  0.00  0.00  0.44  0.00
  1666                    1.00   0.02  0.00  0.00  0.21  0.77  0.00  0.00  0.63  0.00
  1667                    1.00   0.02  0.00  0.00  0.98  0.00  0.00  0.00  0.00  0.00
  1668                    1.00   0.05  0.00  0.00  0.95  0.00  0.00  0.00  0.00  0.00
  1669                    1.00   0.00  0.00  0.00  1.00  0.00  0.00  0.00  0.96  0.00
  1670                    1.00   0.00  0.00  0.00  1.00  0.00  0.00  0.00  0.40  0.00
  1671                    1.00   0.02  0.04  0.00  0.93  0.00  0.00  0.00  0.00  0.00
  1673                    2.17   0.00  0.00  0.00  1.00  0.00  0.00  0.00  0.06  0.00
  1674                    3.54   0.00  0.00  0.00  0.00  0.99  0.00  0.00  0.00  0.00
  170-OVERFLOW            1.00   0.00  0.00  0.00  0.99  0.01  0.00  0.00  0.96  0.00
  1731                    1.00   0.95  0.05  0.00  0.00  0.00  0.00  0.00  0.00  0.00
  1744                    1.51   0.01  0.00  0.00  0.78  0.00  0.00  0.21  0.00  0.26
  1746                    1.54   0.00  0.00  0.00  0.05  0.94  0.00  0.00  0.66  0.00
  1748                    1.04   0.02  0.00  0.00  0.98  0.00  0.00  0.00  0.00  0.88
  1752                    1.00   0.04  0.00  0.00  0.95  0.00  0.00  0.00  0.00  0.65
  1753                    1.00   0.00  0.00  0.00  0.70  0.30  0.00  0.00  0.00  0.97
  1755                    1.00   0.04  0.00  0.00  0.61  0.35  0.00  0.00  0.81  0.00
  1756                    1.00   0.00  0.00  0.00  0.00  1.00  0.00  0.00  0.96  0.00
  1761                    3.37   0.00  0.00  0.00  1.00  0.00  0.00  0.00  0.00  0.00
  1768                    1.00   0.00  0.00  0.00  0.04  0.95  0.00  0.00  0.00  0.00
  1769                    4.35   0.00  0.00  0.00  0.02  0.98  0.00  0.00  0.00  0.00
  1770                    1.00   0.00  0.00  0.00  0.94  0.06  0.00  0.00  0.95  0.00
  1771                    1.16   0.00  0.00  0.00  0.16  0.84  0.00  0.00  0.00  0.00
  1772                    1.51   0.01  0.00  0.00  0.01  0.99  0.00  0.00  0.92  0.00
  1773                    1.89   0.01  0.00  0.00  0.12  0.87  0.00  0.00  0.93  0.00
  1776                    1.34   0.01  0.00  0.00  0.00  0.98  0.00  0.00  0.00  0.00
  1793                    1.00   0.00  0.02  0.00  0.97  0.00  0.00  0.00  0.90  0.00
  1796                    1.00   0.00  0.00  0.00  1.00  0.00  0.00  0.00  0.33  0.00
  1800                    1.00   0.05  0.00  0.00  0.95  0.00  0.00  0.00  0.00  0.00
  1801                    1.00   0.05  0.00  0.00  0.35  0.61  0.00  0.00  0.84  0.00
  1802                    1.00   0.05  0.00  0.00  0.27  0.68  0.00  0.00  0.00  0.00
  1803                    1.13   0.05  0.00  0.00  0.03  0.93  0.00  0.00  0.82  0.00
  1804                    3.38   0.05  0.00  0.00  0.79  0.16  0.00  0.00  0.83  0.00
  1805                    1.71   0.05  0.00  0.00  0.04  0.91  0.00  0.00  0.00  0.00
  1806                    5.84   0.05  0.00  0.00  0.02  0.93  0.00  0.00  0.83  0.00
  1807                    3.18   0.05  0.00  0.00  0.56  0.39  0.00  0.00  0.83  0.00
  1808                    1.03   0.05  0.00  0.00  0.50  0.45  0.00  0.00  0.00  0.00
  1809                    1.00   0.05  0.00  0.00  0.95  0.00  0.00  0.00  0.83  0.00
  1810                    2.09   0.01  0.95  0.00  0.01  0.03  0.00  0.00  0.48  0.00
  1811                    4.15   1.00  0.00  0.00  0.00  0.00  0.00  0.00  0.00  0.00
  1812                    1.62   0.98  0.00  0.00  0.00  0.00  0.00  0.02  0.00  0.00
  1813                   11.25   0.98  0.00  0.00  0.00  0.01  0.00  0.01  0.49  0.00
  1814                    1.83   1.00  0.00  0.00  0.00  0.00  0.00  0.00  0.00  0.00
  1815                   10.23   1.00  0.00  0.00  0.00  0.00  0.00  0.00  0.00  0.00
  1816                    3.27   1.00  0.00  0.00  0.00  0.00  0.00  0.00  0.00  0.00
  1817                    1.00   0.98  0.02  0.00  0.00  0.00  0.00  0.00  0.00  0.00
  1818                    1.36   0.94  0.00  0.00  0.00  0.00  0.00  0.06  0.00  0.00
  1819                    1.42   1.00  0.00  0.00  0.00  0.00  0.00  0.00  0.00  0.00
  1820                    1.00   0.00  0.00  0.00  0.50  0.50  0.00  0.00  0.00  0.00
  1821                    1.00   1.00  0.00  0.00  0.00  0.00  0.00  0.00  0.00  0.00
  1822                    1.00   1.00  0.00  0.00  0.00  0.00  0.00  0.00  0.00  0.00
  1823                    2.25   0.00  0.81  0.00  0.19  0.00  0.00  0.00  0.50  0.00
  1824                    1.45   1.00  0.00  0.00  0.00  0.00  0.00  0.00  0.00  0.00
  1825                    1.92   1.00  0.00  0.00  0.00  0.00  0.00  0.00  0.00  0.00
  1826                    1.18   1.00  0.00  0.00  0.00  0.00  0.00  0.00  0.00  0.00
  1827                    2.77   0.96  0.02  0.00  0.02  0.00  0.00  0.00  0.49  0.00
  1828                    1.00   0.68  0.12  0.00  0.20  0.00  0.00  0.00  0.50  0.00
  1829                    1.00   1.00  0.00  0.00  0.00  0.00  0.00  0.00  0.00  0.00
  1830                    1.00   1.00  0.00  0.00  0.00  0.00  0.00  0.00  0.00  0.00
  1831                    1.00   0.94  0.00  0.00  0.00  0.00  0.00  0.06  0.47  0.00
  1832                    1.00   0.93  0.01  0.00  0.01  0.04  0.00  0.01  0.02  0.00
  1833                    2.04   1.00  0.00  0.00  0.00  0.00  0.00  0.00  0.00  0.00
  1834                    1.00   1.00  0.00  0.00  0.00  0.00  0.00  0.00  0.00  0.00
  1835                    1.00   1.00  0.00  0.00  0.00  0.00  0.00  0.00  0.00  0.00
  1836                    1.08   1.00  0.00  0.00  0.00  0.00  0.00  0.00  0.00  0.00
  1837                    1.46   1.00  0.00  0.00  0.00  0.00  0.00  0.00  0.00  0.00
  1838                    1.00   0.91  0.09  0.00  0.00  0.00  0.00  0.00  0.00  0.00
  1839                    2.56   1.00  0.00  0.00  0.00  0.00  0.00  0.00  0.00  0.00
  1848                    1.00   0.03  0.00  0.00  0.00  0.97  0.00  0.00  0.00  0.00
  1852                    1.00   0.03  0.00  0.00  0.88  0.01  0.00  0.08  0.74  0.00
  1864                    1.00   0.08  0.60  0.00  0.32  0.00  0.00  0.00  0.30  0.00
  1869                    2.59   0.01  0.01  0.00  0.97  0.00  0.00  0.00  0.00  0.00
  1873                    1.00   0.32  0.00  0.00  0.68  0.00  0.00  0.00  0.00  0.00
  1879                    1.13   0.00  0.00  0.00  0.00  1.00  0.00  0.00  0.00  0.00
  1880                    1.29   0.00  0.00  0.00  0.38  0.62  0.00  0.00  0.92  0.00
  1881                    2.71   0.00  0.00  0.00  0.00  1.00  0.00  0.00  0.82  0.00
  1883                    8.44   0.01  0.00  0.00  0.13  0.04  0.00  0.82  0.09  0.00
  1885                   12.04   0.01  0.33  0.00  0.66  0.00  0.00  0.00  0.52  0.00
  1900                    1.32   0.00  0.00  0.00  1.00  0.00  0.00  0.00  0.00  0.34
  1957                    1.00   0.00  0.00  0.00  0.97  0.03  0.00  0.00  0.00  0.00
  2077                    1.00   1.00  0.00  0.00  0.00  0.00  0.00  0.00  0.00  0.00
  2080                    1.79   0.00  1.00  0.00  0.00  0.00  0.00  0.00  0.00  0.00
  2091                    1.00   1.00  0.00  0.00  0.00  0.00  0.00  0.00  0.00  0.00
  2111                    1.28   1.00  0.00  0.00  0.00  0.00  0.00  0.00  0.00  0.00
  2141                    3.44   0.36  0.58  0.00  0.04  0.02  0.00  0.00  0.00  0.00
  2142                    1.97   0.36  0.00  0.00  0.06  0.00  0.00  0.58  0.00  0.00
  2172                    2.02   1.00  0.00  0.00  0.00  0.00  0.00  0.00  0.00  0.00
  2173                    1.89   1.00  0.00  0.00  0.00  0.00  0.00  0.00  0.00  0.00
  2175                    5.23   0.03  0.97  0.00  0.00  0.00  0.00  0.00  0.00  0.00
  2244                    1.18   0.90  0.00  0.00  0.00  0.00  0.00  0.10  0.00  0.00
  2245                    1.00   0.28  0.00  0.00  0.59  0.01  0.00  0.13  0.49  0.00
  2258                    7.93   0.39  0.00  0.00  0.57  0.04  0.00  0.00  0.49  0.00
  2259                    1.00   0.39  0.00  0.00  0.00  0.00  0.00  0.61  0.00  0.00
  2268                    1.00   0.39  0.31  0.00  0.02  0.27  0.00  0.01  0.47  0.00
  2269                    1.00   0.28  0.11  0.00  0.59  0.03  0.00  0.00  0.50  0.00
  2274                    2.55   0.01  0.00  0.00  0.44  0.54  0.00  0.00  0.00  0.87
  2275                    3.81   0.00  0.01  0.00  0.97  0.01  0.00  0.00  0.00  0.93
  2276                    8.94   0.01  0.00  0.00  0.98  0.01  0.00  0.00  0.00  0.39
  2277                    7.45   0.02  0.00  0.00  0.67  0.31  0.00  0.00  0.00  0.81
  2344                    1.00   0.39  0.56  0.00  0.01  0.03  0.00  0.01  0.49  0.00
  2346                    1.00   0.38  0.02  0.00  0.54  0.00  0.00  0.07  0.42  0.00
  2350                    1.00   1.00  0.00  0.00  0.00  0.00  0.00  0.00  0.00  0.00
  2351                    1.00   1.00  0.00  0.00  0.00  0.00  0.00  0.00  0.00  0.00
  2359                    5.41   0.00  0.35  0.00  0.53  0.11  0.00  0.00  0.50  0.00
  2371                    2.01   1.00  0.00  0.00  0.00  0.00  0.00  0.00  0.00  0.00
  2379                    1.00   1.00  0.00  0.00  0.00  0.00  0.00  0.00  0.00  0.00
  2383                    1.00   1.00  0.00  0.00  0.00  0.00  0.00  0.00  0.00  0.00
  2384                    1.00   1.00  0.00  0.00  0.00  0.00  0.00  0.00  0.00  0.00
  CDT-109                 1.00   0.00  0.00  0.00  1.00  0.00  0.00  0.00  0.29  0.00
  CDT-15                  1.00   0.93  0.00  0.00  0.00  0.00  0.00  0.07  0.00  0.00
  CDT-17                  1.00   0.93  0.00  0.00  0.06  0.00  0.00  0.00  0.03  0.00
  CDT-19                  1.23   0.94  0.00  0.00  0.00  0.03  0.00  0.03  0.47  0.00
  CDT-21                  1.00   0.94  0.00  0.00  0.00  0.00  0.00  0.06  0.00  0.00
  CDT-23                  1.00   0.93  0.01  0.00  0.01  0.03  0.00  0.02  0.49  0.00
  CDT-27                  1.00   0.88  0.05  0.00  0.05  0.01  0.00  0.00  0.50  0.00
  CDT-29                  1.00   0.46  0.42  0.00  0.07  0.02  0.00  0.02  0.49  0.00
  CDT-31                  1.32   0.00  0.00  0.00  0.01  0.99  0.00  0.00  0.01  0.00
  CDT-33                  1.00   0.96  0.00  0.00  0.00  0.00  0.00  0.04  0.00  0.00
  CDT-35                  6.58   0.96  0.01  0.00  0.03  0.00  0.00  0.00  0.50  0.00
  CDT-37                  1.00   0.81  0.19  0.00  0.00  0.00  0.00  0.00  0.00  0.00
  CDT-47                  1.03   0.17  0.83  0.00  0.00  0.00  0.00  0.00  0.00  0.00
  CDT-49                  1.92   0.17  0.69  0.00  0.14  0.00  0.00  0.00  0.42  0.00
  CDT-53                  1.00   1.00  0.00  0.00  0.00  0.00  0.00  0.00  0.00  0.00
  CDT-57                  1.00   0.91  0.05  0.00  0.03  0.01  0.00  0.00  0.51  0.00
  CDT-59                  1.00   0.36  0.55  0.00  0.07  0.02  0.00  0.00  0.49  0.00
  CDT-61                  1.00   0.36  0.00  0.00  0.02  0.62  0.00  0.00  0.49  0.00
  CDT-63                  1.00   0.36  0.00  0.00  0.38  0.26  0.00  0.00  0.50  0.00
  CDT-65                  1.00   0.37  0.00  0.00  0.15  0.49  0.00  0.00  0.05  0.00
  CDT-69                  1.00   1.00  0.00  0.00  0.00  0.00  0.00  0.00  0.00  0.00
  CDT-73                  1.40   0.36  0.62  0.00  0.02  0.00  0.00  0.00  0.50  0.00
  CDT-75                 11.16   1.00  0.00  0.00  0.00  0.00  0.00  0.00  0.00  0.00
  CDT-77                  1.21   0.11  0.00  0.00  0.89  0.00  0.00  0.00  0.36  0.00
  CDT-79                  1.00   0.39  0.00  0.00  0.00  0.61  0.00  0.00  0.09  0.00
  CDT-81                  1.82   0.02  0.00  0.00  0.00  0.98  0.00  0.00  0.00  0.00
  CDT-83                  1.03   0.02  0.00  0.00  0.00  0.98  0.00  0.00  0.00  0.00
  CDT-85                  1.00   0.02  0.01  0.00  0.97  0.00  0.00  0.00  0.90  0.00
  CDT-87                  1.04   1.00  0.00  0.00  0.00  0.00  0.00  0.00  0.00  0.00
  CDT-89                  5.23   0.00  0.00  0.00  0.99  0.00  0.00  0.00  0.96  0.00
  CDT-91                  1.00   0.05  0.95  0.00  0.00  0.00  0.00  0.00  0.00  0.00
  COTTONWOOD_PARK_OVERFLOW   10.34   0.39  0.56  0.00  0.01  0.04  0.00  0.00  0.48  0.00
  I-90-5-OVERFLOW         1.00   1.00  0.00  0.00  0.00  0.00  0.00  0.00  0.00  0.00
  I-90-NORTH-OVERFLOW     2.03   0.36  0.50  0.00  0.14  0.00  0.00  0.00  0.49  0.00
  MITCHELL_POND           3.91   0.32  0.68  0.00  0.00  0.00  0.00  0.00  0.00  0.00
  MITCHELL_POND_OVERFLOW    1.00   1.00  0.00  0.00  0.00  0.00  0.00  0.00  0.00  0.00
  OS-34                   1.00   1.00  0.00  0.00  0.00  0.00  0.00  0.00  0.00  0.00
  ROADWAY-1               2.21   0.46  0.00  0.00  0.03  0.00  0.03  0.48  0.00  0.00
  ROADWAY-2               7.48   0.67  0.00  0.00  0.00  0.00  0.00  0.33  0.00  0.00
  ROADWAY-3               5.70   1.00  0.00  0.00  0.00  0.00  0.00  0.00  0.00  0.00
  ROADWAY-4               5.87   1.00  0.00  0.00  0.00  0.00  0.00  0.00  0.00  0.00
  ROADWAY-5               8.74   1.00  0.00  0.00  0.00  0.00  0.00  0.00  0.00  0.00
  ROADWAY-7               2.36   1.00  0.00  0.00  0.00  0.00  0.00  0.00  0.00  0.00
  ROADWAY-8               1.36   1.00  0.00  0.00  0.00  0.00  0.00  0.00  0.00  0.00
  ROADWAY-9               1.48   1.00  0.00  0.00  0.00  0.00  0.00  0.00  0.00  0.00
  SUNFLOWER_PARK_R5_OVERFLOW    9.84   0.03  0.39  0.00  0.58  0.00  0.00  0.00  0.06  0.00
  
  
  *************************
  Conduit Surcharge Summary
  *************************
  
  ----------------------------------------------------------------------------
                                                           Hours        Hours 
                         --------- Hours Full --------   Above Full   Capacity
  Conduit                Both Ends  Upstream  Dnstream   Normal Flow   Limited
  ----------------------------------------------------------------------------
  1379                        0.01      0.01      1.08      0.01         0.01
  1570                        0.50      0.65      0.50      0.39         0.50
  1573                        2.43      2.43      3.05      0.01         0.01
  1578                        0.32      0.32      2.50      0.01         0.01
  1585                        0.01      0.68      0.01      0.01         0.01
  1586                        3.19      3.19      5.22      0.01         0.01
  1591                        0.42      0.50      0.46      0.01         0.38
  1593                       13.08     13.08     13.38      0.51         3.21
  1599                        0.01      0.01      0.32      0.01         0.01
  1602                        0.90      0.90      0.91      0.01         0.06
  1607                        0.15      0.15      0.68      0.01         0.01
  1612                        0.01      3.05      0.01      3.96         0.01
  1618                        1.20      1.20      1.23      0.01         0.01
  1620                        0.01      0.02      0.01      5.13         0.01
  1624                        0.51      0.51      0.57      0.01         0.01
  1626                        0.46      0.46      0.51      0.01         0.01
  1632                        0.78      1.38      0.78      0.13         0.04
  1633                        0.01      2.50      0.01      5.22         0.01
  1636                        1.28      1.28      1.82      0.95         1.06
  1637                        5.36      5.36      9.47      0.01         0.32
  1638                        0.01      0.01      0.01      3.08         0.01
  1639                        0.01      0.01      1.81      0.01         0.01
  1642                        0.91      0.91      0.98      0.01         0.01
  1643                        0.89      0.89      0.90      0.01         0.02
  1644                        0.01      0.01      0.15      0.01         0.01
  1645                        0.98      0.98      1.28      0.01         0.67
  1646                        0.89      1.23      0.89      1.27         0.89
  1647                        0.01      0.01      3.19      0.01         0.01
  1649                        0.89      0.89      0.89      0.01         0.01
  1651                        0.01      0.01      0.01     10.38         0.01
  1652                        1.47      1.81      5.36      1.64         1.16
  1653                        0.57      0.57      1.25      0.01         0.01
  1657                        0.77      0.77      1.02      0.01         0.02
  1659                        0.01      0.72      0.01      1.24         0.01
  1661                        0.75      0.76      0.77      0.01         0.02
  1665                        2.45      2.45      3.52      0.01         0.01
  1667                        0.01      0.01      0.01      1.33         0.01
  1668                        0.01      0.01      0.01      1.82         0.01
  1669                        0.01      0.01      2.64      0.01         0.01
  1670                        3.92      3.92     13.08      0.01         0.19
  1671                       11.95     11.95     19.79      0.01         0.01
  1673                        0.82      1.03      0.82      1.12         0.82
  1674                        0.01      0.82      0.01      1.79         0.01
  170-OVERFLOW                0.01      0.01      2.64      0.01         0.01
  1744                       12.31     13.33     12.31     16.56        11.72
  1746                        0.56      0.56      0.65      0.01         0.41
  1752                        0.01      1.86      0.01      1.94         0.01
  1755                        0.94      0.98      1.81      0.65         0.86
  1756                        0.01      0.01      0.56      0.01         0.01
  1761                        0.96      0.98      0.96      0.80         0.96
  1768                        0.28      0.96      0.28      0.94         0.28
  1769                        0.13      0.16      0.13      0.01         0.12
  1770                        0.13      0.13      2.75      0.01         0.01
  1771                        0.01      2.75      0.01      0.01         0.01
  1823                        0.01      0.01     11.96      0.01         0.01
  1864                        0.01      0.01      7.28      0.01         0.01
  1879                        0.01      4.89      0.01      4.18         0.01
  2269                        0.01      0.01      4.54      0.01         0.01
  2274                        1.62     12.24      1.62     10.13         1.62
  2275                        0.01      1.63      0.01      0.01         0.01
  2346                        0.01      0.01      4.85      0.01         0.01
  CDT-27                      0.01      0.01      0.08      0.01         0.01
  CDT-29                      0.08      0.08     12.00      0.01         0.01
  CDT-31                      0.01      1.82      0.01      0.01         0.01
  CDT-57                      0.01      0.01      0.21      0.01         0.01
  CDT-59                      0.01      0.27      0.01      0.25         0.01
  CDT-63                      0.01      0.01      0.43      0.01         0.01
  CDT-65                      0.01      0.43      0.01      0.01         0.01
  CDT-73                      0.01      0.01     12.00      0.01         0.01
  CDT-85                      0.01      0.01     11.91      0.01         0.01
  CDT-89                      0.01      0.01     16.96      0.01         0.01
  SUNFLOWER_PARK_R5_OVERFLOW        0.01      0.01     11.46      0.01         0.01
  

  Analysis begun on:  Wed Jan 02 08:24:48 2019
  Analysis ended on:  Wed Jan 02 08:24:53 2019
  Total elapsed time: 00:00:05