
  EPA STORM WATER MANAGEMENT MODEL - VERSION 5.1 (Build 5.1.012)
  --------------------------------------------------------------

  Fixed 0.020, 1.0rrv; Fixed 0.0; New UK 8.0, 110rrv & Ground Infiltration 
  
  
  *********************************************************
  NOTE: The summary statistics displayed in this report are
  based on results found at every computational time step,  
  not just on results from each reporting time step.
  *********************************************************
  
  ****************
  Analysis Options
  ****************
  Flow Units ............... CFS
  Process Models:
    Rainfall/Runoff ........ YES
    RDII ................... NO
    Snowmelt ............... NO
    Groundwater ............ NO
    Flow Routing ........... YES
    Ponding Allowed ........ YES
    Water Quality .......... NO
  Infiltration Method ...... HORTON
  Flow Routing Method ...... KINWAVE
  Starting Date ............ 12/12/2018 00:00:00
  Ending Date .............. 12/13/2018 00:00:00
  Antecedent Dry Days ...... 0.0
  Report Time Step ......... 00:15:00
  Wet Time Step ............ 00:05:00
  Dry Time Step ............ 01:00:00
  Routing Time Step ........ 30.00 sec
  
  
  **************************        Volume         Depth
  Runoff Quantity Continuity     acre-feet        inches
  **************************     ---------       -------
  Total Precipitation ......      2143.824        15.000
  Evaporation Loss .........         0.000         0.000
  Infiltration Loss ........         0.000         0.000
  Surface Runoff ...........      1955.988        13.686
  Final Storage ............       194.652         1.362
  Continuity Error (%) .....        -0.318
  
  
  **************************        Volume        Volume
  Flow Routing Continuity        acre-feet      10^6 gal
  **************************     ---------     ---------
  Dry Weather Inflow .......     31768.526     10352.249
  Wet Weather Inflow .......      1955.988       637.388
  Groundwater Inflow .......         0.000         0.000
  RDII Inflow ..............         0.000         0.000
  External Inflow ..........         0.000         0.000
  External Outflow .........        13.924         4.537
  Flooding Loss ............        36.652        11.943
  Evaporation Loss .........         0.000         0.000
  Exfiltration Loss ........         0.000         0.000
  Initial Stored Volume ....         0.000         0.000
  Final Stored Volume ......     33674.717     10973.410
  Continuity Error (%) .....        -0.002
  
  
  ********************************
  Highest Flow Instability Indexes
  ********************************
  All links are stable.
  
  
  *************************
  Routing Time Step Summary
  *************************
  Minimum Time Step           :    30.00 sec
  Average Time Step           :    30.00 sec
  Maximum Time Step           :    30.00 sec
  Percent in Steady State     :     0.00
  Average Iterations per Step :     1.01
  Percent Not Converging      :     0.00
  
  
  ***************************
  Subcatchment Runoff Summary
  ***************************
  
  --------------------------------------------------------------------------------------------------------
                            Total      Total      Total      Total      Total       Total     Peak  Runoff
                           Precip      Runon       Evap      Infil     Runoff      Runoff   Runoff   Coeff
  Subcatchment                 in         in         in         in         in    10^6 gal      CFS
  --------------------------------------------------------------------------------------------------------
  S2234                     15.00       0.00       0.00       0.00      13.40        1.82    15.10   0.893
  S2251                     15.00       0.00       0.00       0.00      13.85        1.14     9.21   0.923
  S2252                     15.00       0.00       0.00       0.00      12.40        2.36    21.23   0.827
  S2253                     15.00       0.00       0.00       0.00      15.00        4.34    32.27   1.000
  S2254                     15.00       0.00       0.00       0.00      15.00        4.13    30.65   1.000
  S2255                     15.00       0.00       0.00       0.00      15.00        8.12    60.28   1.000
  S2256                     15.00       0.00       0.00       0.00      12.80       10.33    89.89   0.853
  S2257                     15.00       0.00       0.00       0.00      11.40        2.56    25.02   0.760
  S2258                     15.00       0.00       0.00       0.00      13.00        1.22    10.42   0.867
  S2260                     15.00       0.00       0.00       0.00      12.90       50.65   437.39   0.860
  S2261                     15.00       0.00       0.00       0.00      12.80       15.47   134.62   0.853
  S2262                     15.00       0.00       0.00       0.00      13.30       18.15   152.05   0.887
  S2265                     15.00       0.00       0.00       0.00      12.80        3.70    32.22   0.853
  S2266                     15.00       0.00       0.00       0.00      13.50        8.87    73.22   0.900
  S2267                     15.00       0.00       0.00       0.00      13.70      155.53  1264.77   0.913
  S2268                     15.00       0.00       0.00       0.00      15.00        3.84    28.54   1.000
  S2269                     15.00       0.00       0.00       0.00      15.00       11.07    82.20   1.000
  S2270                     15.00       0.00       0.00       0.00      12.70        4.86    42.63   0.847
  S2271                     15.00       0.00       0.00       0.00      11.10       11.72   117.62   0.740
  S2273                     15.00       0.00       0.00       0.00      11.10       23.00   230.82   0.740
  S3084                     15.00       0.00       0.00       0.00      11.25       14.59   144.46   0.750
  S3880                     15.00       0.00       0.00       0.00      13.70       63.06   512.79   0.913
  S3881                     15.00       0.00       0.00       0.00      15.00        2.06    15.27   1.000
  S3882                     15.00       0.00       0.00       0.00      15.00        2.31    17.19   1.000
  S3883                     15.00       0.00       0.00       0.00      12.10        2.17    20.00   0.807
  S3884                     15.00       0.00       0.00       0.00      12.30        5.34    48.35   0.820
  S3886                     15.00       0.00       0.00       0.00      10.95        3.93    39.95   0.730
  S3887                     15.00       0.00       0.00       0.00      13.30        2.55    21.35   0.887
  S3888                     15.00       0.00       0.00       0.00      11.25        1.89    18.68   0.750
  S3889                     15.00       0.00       0.00       0.00      15.00       42.55   316.06   1.000
  S3891                     15.00       0.00       0.00       0.00      15.00      154.03  1144.00   1.000
  
  
  ******************
  Node Depth Summary
  ******************
  
  ---------------------------------------------------------------------------------
                                 Average  Maximum  Maximum  Time of Max    Reported
                                   Depth    Depth      HGL   Occurrence   Max Depth
  Node                 Type         Feet     Feet     Feet  days hr:min        Feet
  ---------------------------------------------------------------------------------
  2233                 JUNCTION     0.00     0.00    10.00     0  00:00        0.00
  2234                 JUNCTION    27.14    27.14    35.00     0  00:00       27.14
  2238                 JUNCTION    13.85    13.85    15.00     0  00:00       13.85
  22389                JUNCTION    15.22    15.24    15.00     0  00:03       15.24
  2251                 JUNCTION    21.21    21.21   100.00     0  00:00       21.21
  2252                 JUNCTION    23.62    23.62    80.00     0  00:00       23.62
  2253                 JUNCTION    21.37    21.37    70.00     0  00:00       21.37
  2254                 JUNCTION    26.80    26.80    70.00     0  00:00       26.80
  2255                 JUNCTION    27.41    27.41    70.00     0  00:00       27.41
  2256                 JUNCTION    34.07    34.07    70.00     0  00:00       34.07
  2257                 JUNCTION    25.00    25.00    60.00     0  00:00       25.00
  2258                 JUNCTION    21.19    21.19    55.00     0  00:00       21.19
  2260                 JUNCTION    37.96    37.96    40.00     0  00:00       37.96
  2261                 JUNCTION    76.98    76.98    80.00     0  00:00       76.98
  2262                 JUNCTION   113.50   113.50   120.00     0  00:00      113.50
  2265                 JUNCTION    32.26    32.26    40.00     0  00:00       32.26
  2266                 JUNCTION    21.56    21.56    50.00     0  00:00       21.56
  2267                 JUNCTION    35.92    35.92   140.00     0  00:00       35.92
  2268                 JUNCTION    17.43    17.43   100.00     0  00:00       17.43
  2269                 JUNCTION    15.00    15.00   100.00     0  00:00       15.00
  2270                 JUNCTION    21.90    21.90    30.00     0  00:00       21.90
  2271                 JUNCTION    16.18    16.18    25.00     0  00:00       16.18
  2273                 JUNCTION    10.46    10.46    20.00     0  00:00       10.46
  3060                 JUNCTION     1.40     1.48    -3.59     0  00:33        1.44
  3061                 JUNCTION     1.40     1.47    -4.09     0  00:35        1.43
  3080                 JUNCTION     1.42     1.51    -0.79     0  00:21        1.46
  3081                 JUNCTION     1.42     1.51    -0.56     0  00:20        1.47
  3082                 JUNCTION     2.57     2.58     0.73     0  00:21        2.58
  3084                 JUNCTION    19.80    19.80    20.00     0  00:00       19.80
  3085                 JUNCTION     1.42     1.51    -1.25     0  00:22        1.43
  3086                 JUNCTION     1.42     1.51    -1.59     0  00:24        1.43
  3087                 JUNCTION     1.41     1.50    -2.00     0  00:25        1.45
  3089                 JUNCTION     1.41     1.49    -3.23     0  00:31        1.48
  3880                 JUNCTION    43.77    43.77    65.00     0  00:00       43.77
  3881                 JUNCTION    43.63    43.63    65.00     0  00:00       43.63
  3882                 JUNCTION    43.41    43.41    65.00     0  00:00       43.41
  3883                 JUNCTION    53.03    53.03    75.00     0  00:00       53.03
  3884                 JUNCTION    62.69    62.69    85.00     0  00:00       62.69
  3886                 JUNCTION    65.90    65.90    90.00     0  00:00       65.90
  3887                 JUNCTION    72.21    72.21    95.00     0  00:00       72.21
  3888                 JUNCTION    70.58    70.58    95.00     0  00:00       70.58
  3889                 JUNCTION    70.56    70.56    95.00     0  00:00       70.56
  3891                 JUNCTION    70.19    70.19    95.00     0  00:00       70.19
  3892                 JUNCTION     1.41     1.49    -2.62     0  00:28        1.48
  3894                 JUNCTION     1.41     1.49    -2.78     0  00:29        1.48
  3896                 JUNCTION     1.41     1.49    -2.90     0  00:29        1.49
  3897                 JUNCTION     1.41     1.49    -3.05     0  00:30        1.49
  Outfall              OUTFALL      1.40     1.47    -4.31     0  00:37        1.43
  
  
  *******************
  Node Inflow Summary
  *******************
  
  -------------------------------------------------------------------------------------------------
                                  Maximum  Maximum                  Lateral       Total        Flow
                                  Lateral    Total  Time of Max      Inflow      Inflow     Balance
                                   Inflow   Inflow   Occurrence      Volume      Volume       Error
  Node                 Type           CFS      CFS  days hr:min    10^6 gal    10^6 gal     Percent
  -------------------------------------------------------------------------------------------------
  2233                 JUNCTION      0.00     0.00     0  00:00           0           0       0.000 gal
  2234                 JUNCTION     62.10   126.40     0  05:05        32.2        73.7       0.000
  2238                 JUNCTION      0.00    24.27     0  00:00           0        15.7       0.012
  22389                JUNCTION      0.00     9.12     0  00:04           0        5.51       0.003
  2251                 JUNCTION     37.21    40.23     0  05:05        19.2        21.2      -0.000
  2252                 JUNCTION     87.23    96.52     0  05:05          45          51       0.000
  2253                 JUNCTION    132.27   137.91     0  05:05          69        72.6       0.000
  2254                 JUNCTION    125.65   138.96     0  05:05        65.5        74.1      -0.000
  2255                 JUNCTION    246.28   250.49     0  05:06         128         131       0.000
  2256                 JUNCTION    367.89   384.19     0  05:05         190         200      -0.000
  2257                 JUNCTION    102.02   106.88     0  05:05        52.3        55.5      -0.000
  2258                 JUNCTION     42.42    47.28     0  05:05        21.9          25      -0.000
  2260                 JUNCTION   1788.39  1791.88     0  05:05         924         926      -0.000
  2261                 JUNCTION    550.62   559.16     0  05:05         284         290      -0.000
  2262                 JUNCTION    621.05   623.77     0  05:05         321         323      -0.000
  2265                 JUNCTION    131.22   149.58     0  05:05        67.7        79.5       0.000
  2266                 JUNCTION    299.22   317.41     0  05:05         155         167       0.000
  2267                 JUNCTION   5169.77  5169.77     0  05:05   2.68e+003   2.68e+003      -0.000
  2268                 JUNCTION    116.54   121.50     0  05:05        60.7        63.9      -0.000
  2269                 JUNCTION    336.20   336.20     0  05:05         175         175       0.000
  2270                 JUNCTION    174.63   238.93     0  05:05        90.2         132       0.000
  2271                 JUNCTION    480.62   584.16     0  05:15         246         313      -0.000
  2273                 JUNCTION    943.82   943.82     0  05:15         484         484      -0.000
  3060                 JUNCTION      0.00     7.55     0  00:33           0        4.55       0.000
  3061                 JUNCTION      0.00     7.50     0  00:35           0        4.54       0.000
  3080                 JUNCTION      0.00     7.74     0  00:21           0         4.6       0.000
  3081                 JUNCTION      0.00     7.74     0  00:20           0        4.61       0.000
  3082                 JUNCTION      0.00     7.75     0  00:17           0        4.61       0.000
  3084                 JUNCTION    590.46   590.46     0  05:10         303         303       0.000
  3085                 JUNCTION      0.00     7.77     0  00:22           0        4.59       0.000
  3086                 JUNCTION      0.00     7.74     0  00:24           0        4.59       0.000
  3087                 JUNCTION      0.00     7.70     0  00:25           0        4.58       0.000
  3089                 JUNCTION      0.00     7.58     0  00:31           0        4.56       0.000
  3880                 JUNCTION   2095.79  2102.95     0  05:05   1.09e+003   1.09e+003      -0.000
  3881                 JUNCTION     62.27    69.43     0  05:05        32.4        37.1      -0.000
  3882                 JUNCTION     70.19    77.35     0  05:05        36.6        41.2      -0.000
  3883                 JUNCTION     82.00    89.16     0  05:05        42.2        46.9       0.000
  3884                 JUNCTION    197.35   210.56     0  05:06         102         110       0.000
  3886                 JUNCTION    162.95   170.11     0  05:20        83.4          88       0.000
  3887                 JUNCTION     87.35   100.55     0  05:06        45.2        53.7       0.000
  3888                 JUNCTION     76.68    83.85     0  05:10        39.4          44      -0.000
  3889                 JUNCTION   1292.06  1324.41     0  05:05         673         694      -0.000
  3891                 JUNCTION   4676.00  4676.00     0  05:06   2.44e+003   2.44e+003      -0.000
  3892                 JUNCTION      0.00     7.61     0  00:28           0        4.57       0.000
  3894                 JUNCTION      0.00     7.60     0  00:29           0        4.57       0.000
  3896                 JUNCTION      0.00     7.60     0  00:29           0        4.56       0.000
  3897                 JUNCTION      0.00     7.59     0  00:30           0        4.56       0.000
  Outfall              OUTFALL       0.00     7.49     0  00:37           0        4.54       0.000
  
  
  *********************
  Node Flooding Summary
  *********************
  
  Flooding refers to all water that overflows a node, whether it ponds or not.
  --------------------------------------------------------------------------
                                                             Total   Maximum
                                 Maximum   Time of Max       Flood    Ponded
                        Hours       Rate    Occurrence      Volume    Volume
  Node                 Flooded       CFS   days hr:min    10^6 gal  1000 ft3
  --------------------------------------------------------------------------
  2234                   24.00    108.04      0  05:54      61.871  8271.533
  2238                   24.00     17.11      0  00:01      11.058     0.000
  22389                  23.96      1.67      0  00:04       0.887     0.000
  2251                   24.00     30.94      0  05:44      15.190  2030.744
  2252                   24.00     90.88      0  05:06      47.366  6332.411
  2253                   24.00    124.60      0  05:06      64.007  8557.119
  2254                   24.00    134.75      0  05:06      71.391  9544.307
  2255                   24.00    234.19      0  05:06     120.487 16107.897
  2256                   24.00    379.33      0  05:06     197.354 26384.243
  2257                   24.00    102.02      0  05:06      52.315  6993.968
  2258                   24.00     29.09      0  05:06      13.278  1775.148
  2260                   24.00   1787.51      0  05:06     923.037 123400.670
  2261                   24.00    555.68      0  05:06     287.536 38440.599
  2262                   24.00    615.22      0  05:06     317.437 42438.141
  2265                   24.00    146.86      0  05:06      77.779 10398.242
  2266                   24.00    297.50      0  05:06     153.797 20561.137
  2267                   24.00   5166.68      0  05:06    2676.786 357859.157
  2268                   24.00    118.48      0  05:06      61.956  8282.838
  2269                   24.00    334.33      0  05:06     173.986 23260.144
  2270                   24.00    174.63      0  05:06      90.152 12052.438
  2271                   24.00    519.85      0  05:16     271.625 36313.479
  2273                   24.00    879.51      0  05:16     442.159 59112.121
  3084                   24.00    589.09      0  05:11     301.887 40359.161
  3880                   24.00   2063.72      0  05:06    1065.207 142407.313
  3881                   24.00     62.27      0  05:06      32.425  4334.952
  3882                   24.00     70.19      0  05:06      36.560  4887.745
  3883                   24.00     82.00      0  05:06      42.234  5646.267
  3884                   24.00    203.39      0  05:06     105.521 14107.072
  3886                   24.00    156.91      0  05:21      79.499 10628.267
  3887                   24.00     87.35      0  05:06      45.195  6042.134
  3888                   24.00     76.69      0  05:11      39.365  5262.716
  3889                   24.00   1317.24      0  05:06     689.479 92176.378
  3891                   24.00   4643.65      0  05:06    2415.363 322909.537
  
  
  ***********************
  Outfall Loading Summary
  ***********************
  
  -----------------------------------------------------------
                         Flow       Avg       Max       Total
                         Freq      Flow      Flow      Volume
  Outfall Node           Pcnt       CFS       CFS    10^6 gal
  -----------------------------------------------------------
  Outfall               98.26      7.15      7.49       4.537
  -----------------------------------------------------------
  System                98.26      7.15      7.49       4.537
  
  
  ********************
  Link Flow Summary
  ********************
  
  -----------------------------------------------------------------------------
                                 Maximum  Time of Max   Maximum    Max/    Max/
                                  |Flow|   Occurrence   |Veloc|    Full    Full
  Link                 Type          CFS  days hr:min    ft/sec    Flow   Depth
  -----------------------------------------------------------------------------
  2233.1               CONDUIT      0.00     0  00:00      0.00    0.00    0.00
  2234.1               CONDUIT     18.36     0  00:00      3.74    1.00    1.00
  2238.1               CONDUIT      7.75     0  00:04      2.50    1.08    1.00
  22389.1              CONDUIT      7.75     0  00:17      2.50    1.08    1.00
  2251.1               CONDUIT      9.29     0  00:00     17.03    1.00    1.00
  2252.1               CONDUIT      5.64     0  00:00      7.18    1.00    1.00
  2253.1               CONDUIT     13.31     0  00:00      9.53    1.00    1.00
  2254.1               CONDUIT      4.21     0  00:00      3.01    1.00    1.00
  2255.1               CONDUIT     16.30     0  00:00     11.67    1.00    1.00
  2256.1               CONDUIT      4.86     0  00:00      3.48    1.00    1.00
  2257.1               CONDUIT      4.86     0  00:00      3.48    1.00    1.00
  2258.1               CONDUIT     18.19     0  00:00     13.03    1.00    1.00
  2260.1               CONDUIT      4.37     0  00:00      2.47    1.00    1.00
  2261.1               CONDUIT      3.49     0  00:00      1.97    1.00    1.00
  2262.1               CONDUIT      8.54     0  00:00      4.83    1.00    1.00
  2265.1               CONDUIT      2.72     0  00:01      1.54    1.00    1.00
  2266.1               CONDUIT     19.90     0  00:00     14.25    1.00    1.00
  2267.1               CONDUIT      3.09     0  00:00      8.86    1.00    1.00
  2268.1               CONDUIT      3.02     0  00:00      5.54    1.00    1.00
  2269.1               CONDUIT      1.87     0  00:00      5.35    1.00    1.00
  2270.1               CONDUIT     64.30     0  00:00      5.12    1.00    1.00
  2271.1               CONDUIT     64.30     0  00:00      5.12    1.00    1.00
  2273.1               CONDUIT     64.30     0  00:00      5.12    1.00    1.00
  3060.1               CONDUIT      7.50     0  00:35      2.73    0.76    0.65
  3061.1               CONDUIT      7.49     0  00:37      2.72    0.76    0.65
  3080.1               CONDUIT      7.77     0  00:22      2.78    0.79    0.67
  3081.1               CONDUIT      7.74     0  00:21      2.78    0.79    0.67
  3082.1               CONDUIT      7.74     0  00:20      2.78    0.79    0.67
  3084.1               CONDUIT      1.37     0  00:00      0.98    1.00    1.00
  3085.1               CONDUIT      7.74     0  00:24      2.76    0.79    0.67
  3086.1               CONDUIT      7.70     0  00:25      2.76    0.79    0.67
  3087.1               CONDUIT      7.61     0  00:28      2.75    0.78    0.66
  3089.1               CONDUIT      7.55     0  00:33      2.73    0.77    0.66
  3880.1               CONDUIT     39.23     0  00:00     12.49    1.00    1.00
  3881.1               CONDUIT      7.16     0  00:00      2.28    1.00    1.00
  3882.1               CONDUIT      7.16     0  00:00      2.28    1.00    1.00
  3883.1               CONDUIT      7.23     0  00:00      2.40    1.01    1.00
  3884.1               CONDUIT      7.16     0  00:00      2.28    1.00    1.00
  3886.1               CONDUIT     13.20     0  00:00      4.20    1.00    1.00
  3887.1               CONDUIT     13.20     0  00:00      4.20    1.00    1.00
  3888.1               CONDUIT      7.16     0  00:00      2.28    1.00    1.00
  3889.1               CONDUIT      7.16     0  00:00      2.28    1.00    1.00
  3891.1               CONDUIT     32.35     0  00:00     10.30    1.00    1.00
  3892.1               CONDUIT      7.60     0  00:29      2.73    0.78    0.66
  3894.1               CONDUIT      7.60     0  00:29      2.73    0.78    0.66
  3896.1               CONDUIT      7.59     0  00:30      2.73    0.77    0.66
  3897.1               CONDUIT      7.58     0  00:31      2.73    0.77    0.66
  
  
  *************************
  Conduit Surcharge Summary
  *************************
  
  ----------------------------------------------------------------------------
                                                           Hours        Hours 
                         --------- Hours Full --------   Above Full   Capacity
  Conduit                Both Ends  Upstream  Dnstream   Normal Flow   Limited
  ----------------------------------------------------------------------------
  2234.1                     24.00     24.00     24.00     24.00        24.00
  2238.1                     24.00     24.00     24.00      0.01        24.00
  22389.1                    23.96     23.96     23.96      0.17        23.96
  2251.1                     24.00     24.00     24.00     24.00        24.00
  2252.1                     24.00     24.00     24.00     24.00        24.00
  2253.1                     24.00     24.00     24.00     24.00        24.00
  2254.1                     24.00     24.00     24.00     24.00        24.00
  2255.1                     24.00     24.00     24.00      0.01        24.00
  2256.1                     24.00     24.00     24.00     24.00        24.00
  2257.1                     24.00     24.00     24.00     24.00        24.00
  2258.1                     24.00     24.00     24.00     24.00        24.00
  2260.1                     24.00     24.00     24.00     24.00        24.00
  2261.1                     24.00     24.00     24.00     24.00        24.00
  2262.1                     24.00     24.00     24.00     24.00        24.00
  2265.1                     24.00     24.00     24.00     23.99        24.00
  2266.1                     24.00     24.00     24.00     24.00        24.00
  2267.1                     24.00     24.00     24.00     24.00        24.00
  2268.1                     24.00     24.00     24.00      0.01        24.00
  2269.1                     24.00     24.00     24.00     24.00        24.00
  2270.1                     24.00     24.00     24.00     24.00        24.00
  2271.1                     24.00     24.00     24.00     24.00        24.00
  2273.1                     24.00     24.00     24.00     24.00        24.00
  3084.1                     24.00     24.00     24.00     24.00        24.00
  3880.1                     24.00     24.00     24.00      0.01        24.00
  3881.1                     24.00     24.00     24.00      0.01        24.00
  3882.1                     24.00     24.00     24.00      0.01        24.00
  3883.1                     24.00     24.00     24.00      0.01        24.00
  3884.1                     24.00     24.00     24.00      0.01        24.00
  3886.1                     24.00     24.00     24.00      0.01        24.00
  3887.1                     24.00     24.00     24.00      0.01        24.00
  3888.1                     24.00     24.00     24.00      0.01        24.00
  3889.1                     24.00     24.00     24.00     24.00        24.00
  3891.1                     24.00     24.00     24.00      0.01        24.00
  

  Analysis begun on:  Wed Jan 02 08:24:53 2019
  Analysis ended on:  Wed Jan 02 08:24:53 2019
  Total elapsed time: < 1 sec