
  EPA STORM WATER MANAGEMENT MODEL - VERSION 5.1 (Build 5.1.012)
  --------------------------------------------------------------

  
  *********************
  Rainfall File Summary
  *********************
  Station    First        Last         Recording   Periods    Periods    Periods
  ID         Date         Date         Frequency  w/Precip    Missing    Malfunc.
  -------------------------------------------------------------------------------
  1766       01/01/2009   01/01/2010      60 min      8761          0          0

  
  *********************************************************
  NOTE: The summary statistics displayed in this report are
  based on results found at every computational time step,  
  not just on results from each reporting time step.
  *********************************************************
  
  ****************
  Analysis Options
  ****************
  Flow Units ............... LPS
  Process Models:
    Rainfall/Runoff ........ YES
    RDII ................... NO
    Snowmelt ............... NO
    Groundwater ............ NO
    Flow Routing ........... NO
    Water Quality .......... NO
  Infiltration Method ...... GREEN_AMPT
  Starting Date ............ 01/01/2009 00:00:00
  Ending Date .............. 01/01/2010 06:00:00
  Antecedent Dry Days ...... 0.0
  Report Time Step ......... 01:00:00
  Wet Time Step ............ 00:05:00
  Dry Time Step ............ 01:00:00
  
  
  **************************        Volume         Depth
  Runoff Quantity Continuity     hectare-m            mm
  **************************     ---------       -------
  Initial LID Storage ......         0.013        20.031
  Total Precipitation ......         0.481       741.600
  Evaporation Loss .........         0.111       170.556
  Infiltration Loss ........         0.000         0.000
  Surface Runoff ...........         0.314       484.906
  LID Drainage .............         0.053        81.101
  Final Storage ............         0.018        27.647
  Continuity Error (%) .....        -0.339
  
  
  **************************        Volume        Volume
  Flow Routing Continuity        hectare-m      10^6 ltr
  **************************     ---------     ---------
  Dry Weather Inflow .......         0.000         0.000
  Wet Weather Inflow .......         0.367         3.667
  Groundwater Inflow .......         0.000         0.000
  RDII Inflow ..............         0.000         0.000
  External Inflow ..........         0.000         0.000
  External Outflow .........         0.367         3.667
  Flooding Loss ............         0.000         0.000
  Evaporation Loss .........         0.000         0.000
  Exfiltration Loss ........         0.000         0.000
  Initial Stored Volume ....         0.000         0.000
  Final Stored Volume ......         0.000         0.000
  Continuity Error (%) .....         0.000
  
  
  ***************************
  Subcatchment Runoff Summary
  ***************************
  
  --------------------------------------------------------------------------------------------------------
                            Total      Total      Total      Total      Total       Total     Peak  Runoff
                           Precip      Runon       Evap      Infil     Runoff      Runoff   Runoff   Coeff
  Subcatchment                 mm         mm         mm         mm         mm    10^6 ltr      LPS
  --------------------------------------------------------------------------------------------------------
  Haus1                    741.60       0.00     191.12       0.00     550.81        0.24     1.46   0.743
  Haus2                    741.60       0.00     143.20       0.00     601.61        0.25     1.40   0.811
  Haus3                    741.60       0.00     143.20       0.00     601.61        0.25     1.40   0.811
  Haus4                    741.60       0.00     143.20       0.00     601.61        0.25     1.40   0.811
  Haus5                    741.60       0.00     143.20       0.00     601.61        0.25     1.40   0.811
  Haus6                    741.60       0.00     143.20       0.00     601.61        0.25     1.40   0.811
  Haus7                    741.60       0.00     143.20       0.00     601.61        0.25     1.40   0.811
  Befestigt1               741.60       0.00     189.68       0.00     552.91        0.20     1.21   0.746
  Befestigt2               741.60       0.00     189.59       0.00     553.06        0.17     1.07   0.746
  Befestigt3               741.60       0.00     189.82       0.00     552.70        0.17     1.02   0.745
  Befestigt4               741.60       0.00     189.89       0.00     552.58        0.22     1.36   0.745
  Befestigt5               741.60       0.00     191.48       0.00     550.33        0.18     1.09   0.742
  Befestigt6               741.60       0.00     189.89       0.00     552.58        0.22     1.36   0.745
  Befestigt7               741.60       0.00     189.93       0.00     552.51        0.18     1.09   0.745
  Hauptstraﬂe1             741.60       0.00     189.08       0.00     553.89        0.22     1.36   0.747
  Haupstraﬂe2              741.60       0.00     189.08       0.00     553.89        0.22     1.36   0.747
  Mainsoilfilter1          741.60  488890.67     360.24       0.00  488992.00        3.67    20.24   0.999
  Mainsoilfilter2          741.60   89895.93     227.15       0.00   90130.65        2.70    14.77   0.994
  Mainsoilfilter3          741.60   77868.72     185.99       0.00   78144.69        2.50    13.55   0.994
  Mainsoilfilter4          741.60  154317.07     270.83       0.00  154508.08        2.32    12.41   0.996
  Soilfilter1              741.60   23540.43     324.98       0.00   23941.37        0.67     3.88   0.986
  Soilfilter2              741.60   25919.86      38.31       0.00   26586.92        0.93     5.45   0.997
  Soilfilter3              741.60   21640.17      18.28       0.00   22390.96        0.96     5.59   1.000
  Soilfilter4              741.60   28231.06     328.35       0.00   28547.72        0.43     2.52   0.985
  Soilfilter5              741.60   25188.62      35.81       0.00   25867.53        0.44     2.57   0.998
  Soilfilter6              741.60   37809.78      88.52       0.00   38338.75        0.92     5.39   0.994
  Soilfilter7              741.60    9632.83     316.09       0.00   10163.22        0.23     1.36   0.980
  Soilfilter8              741.60  115386.35     224.24       0.00  115624.26        1.16     6.69   0.996
  Soilfilter9              741.60   39365.06      86.26       0.00   39909.93        1.40     6.94   0.995
  Soilfilter10             741.60   28184.39     325.07       0.00   28503.97        0.43     2.52   0.985
  Soilfilter11             741.60   25150.02      35.76       0.00   25828.59        0.44     2.57   0.998
  Soilfilter12             741.60   37782.20      88.42       0.00   38311.43        0.92     5.39   0.994
  Soilfilter13             741.60  257365.04     318.40       0.00  257199.18        2.31    12.36   0.996
  

  ***********************
  LID Performance Summary
  ***********************

  --------------------------------------------------------------------------------------------------------------------
                                         Total      Evap     Infil   Surface    Drain    Initial     Final  Continuity
                                        Inflow      Loss      Loss   Outflow   Outflow   Storage   Storage       Error
  Subcatchment      LID Control             mm        mm        mm        mm        mm        mm        mm           %
  --------------------------------------------------------------------------------------------------------------------
  Mainsoilfilter1   Energieallee     489632.27    360.24      0.00 418926.47  70065.74    349.33    629.17       -0.00
  Mainsoilfilter2   Energieallee      90637.53    227.15      0.00  33091.46  57039.22    349.33    629.17       -0.00
  Mainsoilfilter3   Energieallee      78610.32    185.99      0.00  26992.89  51151.83    349.33    629.17       -0.00
  Mainsoilfilter4   Energieallee     155058.67    270.83      0.00  93381.64  61126.50    349.33    629.17       -0.00
  Soilfilter1       Energieallee      24282.03    324.98      0.00   4371.73  19569.64    349.33    370.51       -0.02
  Soilfilter2       Energieallee      26661.46     38.31      0.00   3249.88  23337.05    349.33    386.45       -0.00
  Soilfilter3       Energieallee      22381.77     18.28      0.00   1556.65  20834.32    349.33    322.15       -0.00
  Soilfilter4       Energieallee      28972.66    328.35      0.00   6890.50  21657.23    349.33    450.69       -0.02
  Soilfilter5       Energieallee      25930.22     35.81      0.00   3020.69  22846.85    349.33    377.95       -0.01
  Soilfilter6       Energieallee      38551.38     88.52      0.00   6960.96  31377.81    349.33    475.83       -0.01
  Soilfilter7       Energieallee      10374.43    316.09      0.00    481.09   9682.13    349.33    245.77       -0.01
  Soilfilter8       Energieallee     116127.95    224.24      0.00  62972.81  52651.50    349.33    629.17       -0.00
  Soilfilter9       Energieallee      40106.66     86.26      0.00   5880.15  34029.80    349.33    460.11       -0.00
  Soilfilter10      Energieallee      28925.99    325.07      0.00   6861.74  21642.24    349.33    450.47       -0.01
  Soilfilter11      Energieallee      25891.62     35.76      0.00   3012.00  22816.60    349.33    377.79       -0.00
  Soilfilter12      Energieallee      38523.80     88.42      0.00   6951.55  31359.90    349.33    475.60       -0.01
  Soilfilter13      Energieallee     258106.64    318.40      0.00 191912.20  65287.09     40.00    629.17       -0.00

  Analysis begun on:  Wed Jan 02 08:24:53 2019
  Analysis ended on:  Wed Jan 02 08:24:56 2019
  Total elapsed time: 00:00:03