
  EPA STORM WATER MANAGEMENT MODEL - VERSION 5.1 (Build 5.1.012)
  --------------------------------------------------------------

  WARNING 04: minimum elevation drop used for Conduit 101
  WARNING 04: minimum elevation drop used for Conduit 103
  WARNING 04: minimum elevation drop used for Conduit 105
  WARNING 04: minimum elevation drop used for Conduit 107
  WARNING 04: minimum elevation drop used for Conduit 109
  WARNING 04: minimum elevation drop used for Conduit 111
  WARNING 04: minimum elevation drop used for Conduit 113
  WARNING 04: minimum elevation drop used for Conduit 115
  WARNING 04: minimum elevation drop used for Conduit 117
  WARNING 04: minimum elevation drop used for Conduit 119
  WARNING 04: minimum elevation drop used for Conduit 121
  WARNING 04: minimum elevation drop used for Conduit 123
  WARNING 04: minimum elevation drop used for Conduit 125
  WARNING 04: minimum elevation drop used for Conduit 127
  WARNING 04: minimum elevation drop used for Conduit 129
  WARNING 04: minimum elevation drop used for Conduit 131
  WARNING 04: minimum elevation drop used for Conduit 133
  WARNING 04: minimum elevation drop used for Conduit 135
  WARNING 04: minimum elevation drop used for Conduit 137
  WARNING 04: minimum elevation drop used for Conduit 139
  WARNING 04: minimum elevation drop used for Conduit 141
  WARNING 04: minimum elevation drop used for Conduit 143
  WARNING 04: minimum elevation drop used for Conduit 145
  WARNING 04: minimum elevation drop used for Conduit 147
  WARNING 04: minimum elevation drop used for Conduit 149
  WARNING 04: minimum elevation drop used for Conduit 151
  WARNING 04: minimum elevation drop used for Conduit 153
  WARNING 04: minimum elevation drop used for Conduit 155
  WARNING 04: minimum elevation drop used for Conduit 157
  WARNING 04: minimum elevation drop used for Conduit 159
  WARNING 04: minimum elevation drop used for Conduit 161
  WARNING 04: minimum elevation drop used for Conduit 163
  WARNING 04: minimum elevation drop used for Conduit 165
  WARNING 04: minimum elevation drop used for Conduit 167
  WARNING 04: minimum elevation drop used for Conduit 169
  WARNING 04: minimum elevation drop used for Conduit 17
  WARNING 04: minimum elevation drop used for Conduit 171
  WARNING 04: minimum elevation drop used for Conduit 173
  WARNING 04: minimum elevation drop used for Conduit 175
  WARNING 04: minimum elevation drop used for Conduit 177
  WARNING 04: minimum elevation drop used for Conduit 179
  WARNING 04: minimum elevation drop used for Conduit 181
  WARNING 04: minimum elevation drop used for Conduit 183
  WARNING 04: minimum elevation drop used for Conduit 185
  WARNING 04: minimum elevation drop used for Conduit 187
  WARNING 04: minimum elevation drop used for Conduit 189
  WARNING 04: minimum elevation drop used for Conduit 19
  WARNING 04: minimum elevation drop used for Conduit 191
  WARNING 04: minimum elevation drop used for Conduit 193
  WARNING 04: minimum elevation drop used for Conduit 195
  WARNING 04: minimum elevation drop used for Conduit 197
  WARNING 04: minimum elevation drop used for Conduit 199
  WARNING 04: minimum elevation drop used for Conduit 201
  WARNING 04: minimum elevation drop used for Conduit 203
  WARNING 04: minimum elevation drop used for Conduit 205
  WARNING 04: minimum elevation drop used for Conduit 207
  WARNING 04: minimum elevation drop used for Conduit 209
  WARNING 04: minimum elevation drop used for Conduit 21
  WARNING 04: minimum elevation drop used for Conduit 211
  WARNING 04: minimum elevation drop used for Conduit 213
  WARNING 04: minimum elevation drop used for Conduit 215
  WARNING 04: minimum elevation drop used for Conduit 217
  WARNING 04: minimum elevation drop used for Conduit 219
  WARNING 04: minimum elevation drop used for Conduit 221
  WARNING 04: minimum elevation drop used for Conduit 223
  WARNING 04: minimum elevation drop used for Conduit 225
  WARNING 04: minimum elevation drop used for Conduit 227
  WARNING 04: minimum elevation drop used for Conduit 229
  WARNING 04: minimum elevation drop used for Conduit 231
  WARNING 04: minimum elevation drop used for Conduit 233
  WARNING 04: minimum elevation drop used for Conduit 235
  WARNING 04: minimum elevation drop used for Conduit 237
  WARNING 04: minimum elevation drop used for Conduit 239
  WARNING 04: minimum elevation drop used for Conduit 241
  WARNING 04: minimum elevation drop used for Conduit 243
  WARNING 04: minimum elevation drop used for Conduit 245
  WARNING 04: minimum elevation drop used for Conduit 247
  WARNING 04: minimum elevation drop used for Conduit 249
  WARNING 04: minimum elevation drop used for Conduit 25
  WARNING 04: minimum elevation drop used for Conduit 251
  WARNING 04: minimum elevation drop used for Conduit 253
  WARNING 04: minimum elevation drop used for Conduit 255
  WARNING 04: minimum elevation drop used for Conduit 257
  WARNING 04: minimum elevation drop used for Conduit 259
  WARNING 04: minimum elevation drop used for Conduit 261
  WARNING 04: minimum elevation drop used for Conduit 263
  WARNING 04: minimum elevation drop used for Conduit 265
  WARNING 04: minimum elevation drop used for Conduit 267
  WARNING 04: minimum elevation drop used for Conduit 269
  WARNING 04: minimum elevation drop used for Conduit 27
  WARNING 04: minimum elevation drop used for Conduit 271
  WARNING 04: minimum elevation drop used for Conduit 273
  WARNING 04: minimum elevation drop used for Conduit 275
  WARNING 04: minimum elevation drop used for Conduit 277
  WARNING 04: minimum elevation drop used for Conduit 279
  WARNING 04: minimum elevation drop used for Conduit 281
  WARNING 04: minimum elevation drop used for Conduit 285
  WARNING 04: minimum elevation drop used for Conduit 287
  WARNING 04: minimum elevation drop used for Conduit 289
  WARNING 04: minimum elevation drop used for Conduit 29
  WARNING 04: minimum elevation drop used for Conduit 291
  WARNING 04: minimum elevation drop used for Conduit 293
  WARNING 04: minimum elevation drop used for Conduit 295
  WARNING 04: minimum elevation drop used for Conduit 297
  WARNING 04: minimum elevation drop used for Conduit 299
  WARNING 04: minimum elevation drop used for Conduit 301
  WARNING 04: minimum elevation drop used for Conduit 303
  WARNING 04: minimum elevation drop used for Conduit 305
  WARNING 04: minimum elevation drop used for Conduit 307
  WARNING 04: minimum elevation drop used for Conduit 309
  WARNING 04: minimum elevation drop used for Conduit 31
  WARNING 04: minimum elevation drop used for Conduit 311
  WARNING 04: minimum elevation drop used for Conduit 313
  WARNING 04: minimum elevation drop used for Conduit 315
  WARNING 04: minimum elevation drop used for Conduit 317
  WARNING 04: minimum elevation drop used for Conduit 319
  WARNING 04: minimum elevation drop used for Conduit 321
  WARNING 04: minimum elevation drop used for Conduit 323
  WARNING 04: minimum elevation drop used for Conduit 325
  WARNING 04: minimum elevation drop used for Conduit 327
  WARNING 04: minimum elevation drop used for Conduit 329
  WARNING 04: minimum elevation drop used for Conduit 33
  WARNING 04: minimum elevation drop used for Conduit 331
  WARNING 04: minimum elevation drop used for Conduit 333
  WARNING 04: minimum elevation drop used for Conduit 335
  WARNING 04: minimum elevation drop used for Conduit 337
  WARNING 04: minimum elevation drop used for Conduit 339
  WARNING 04: minimum elevation drop used for Conduit 341
  WARNING 04: minimum elevation drop used for Conduit 343
  WARNING 04: minimum elevation drop used for Conduit 345
  WARNING 04: minimum elevation drop used for Conduit 347
  WARNING 04: minimum elevation drop used for Conduit 349
  WARNING 04: minimum elevation drop used for Conduit 35
  WARNING 04: minimum elevation drop used for Conduit 351
  WARNING 04: minimum elevation drop used for Conduit 353
  WARNING 04: minimum elevation drop used for Conduit 355
  WARNING 04: minimum elevation drop used for Conduit 357
  WARNING 04: minimum elevation drop used for Conduit 359
  WARNING 04: minimum elevation drop used for Conduit 361
  WARNING 04: minimum elevation drop used for Conduit 363
  WARNING 04: minimum elevation drop used for Conduit 365
  WARNING 04: minimum elevation drop used for Conduit 367
  WARNING 04: minimum elevation drop used for Conduit 369
  WARNING 04: minimum elevation drop used for Conduit 37
  WARNING 04: minimum elevation drop used for Conduit 371
  WARNING 04: minimum elevation drop used for Conduit 373
  WARNING 04: minimum elevation drop used for Conduit 375
  WARNING 04: minimum elevation drop used for Conduit 377
  WARNING 04: minimum elevation drop used for Conduit 379
  WARNING 04: minimum elevation drop used for Conduit 381
  WARNING 04: minimum elevation drop used for Conduit 383
  WARNING 04: minimum elevation drop used for Conduit 385
  WARNING 04: minimum elevation drop used for Conduit 387
  WARNING 04: minimum elevation drop used for Conduit 389
  WARNING 04: minimum elevation drop used for Conduit 39
  WARNING 04: minimum elevation drop used for Conduit 391
  WARNING 04: minimum elevation drop used for Conduit 393
  WARNING 04: minimum elevation drop used for Conduit 395
  WARNING 04: minimum elevation drop used for Conduit 397
  WARNING 04: minimum elevation drop used for Conduit 399
  WARNING 04: minimum elevation drop used for Conduit 401
  WARNING 04: minimum elevation drop used for Conduit 403
  WARNING 04: minimum elevation drop used for Conduit 405
  WARNING 04: minimum elevation drop used for Conduit 407
  WARNING 04: minimum elevation drop used for Conduit 409
  WARNING 04: minimum elevation drop used for Conduit 41
  WARNING 04: minimum elevation drop used for Conduit 411
  WARNING 04: minimum elevation drop used for Conduit 413
  WARNING 04: minimum elevation drop used for Conduit 415
  WARNING 04: minimum elevation drop used for Conduit 417
  WARNING 04: minimum elevation drop used for Conduit 419
  WARNING 04: minimum elevation drop used for Conduit 421
  WARNING 04: minimum elevation drop used for Conduit 423
  WARNING 04: minimum elevation drop used for Conduit 425
  WARNING 04: minimum elevation drop used for Conduit 427
  WARNING 04: minimum elevation drop used for Conduit 429
  WARNING 04: minimum elevation drop used for Conduit 43
  WARNING 04: minimum elevation drop used for Conduit 431
  WARNING 04: minimum elevation drop used for Conduit 433
  WARNING 04: minimum elevation drop used for Conduit 435
  WARNING 04: minimum elevation drop used for Conduit 437
  WARNING 04: minimum elevation drop used for Conduit 439
  WARNING 04: minimum elevation drop used for Conduit 441
  WARNING 04: minimum elevation drop used for Conduit 443
  WARNING 04: minimum elevation drop used for Conduit 445
  WARNING 04: minimum elevation drop used for Conduit 447
  WARNING 04: minimum elevation drop used for Conduit 449
  WARNING 04: minimum elevation drop used for Conduit 45
  WARNING 04: minimum elevation drop used for Conduit 451
  WARNING 04: minimum elevation drop used for Conduit 453
  WARNING 04: minimum elevation drop used for Conduit 455
  WARNING 04: minimum elevation drop used for Conduit 457
  WARNING 04: minimum elevation drop used for Conduit 459
  WARNING 04: minimum elevation drop used for Conduit 461
  WARNING 04: minimum elevation drop used for Conduit 463
  WARNING 04: minimum elevation drop used for Conduit 465
  WARNING 04: minimum elevation drop used for Conduit 467
  WARNING 04: minimum elevation drop used for Conduit 469
  WARNING 04: minimum elevation drop used for Conduit 47
  WARNING 04: minimum elevation drop used for Conduit 471
  WARNING 04: minimum elevation drop used for Conduit 473
  WARNING 04: minimum elevation drop used for Conduit 475
  WARNING 04: minimum elevation drop used for Conduit 477
  WARNING 04: minimum elevation drop used for Conduit 479
  WARNING 04: minimum elevation drop used for Conduit 481
  WARNING 04: minimum elevation drop used for Conduit 483
  WARNING 04: minimum elevation drop used for Conduit 485
  WARNING 04: minimum elevation drop used for Conduit 487
  WARNING 04: minimum elevation drop used for Conduit 489
  WARNING 04: minimum elevation drop used for Conduit 49
  WARNING 04: minimum elevation drop used for Conduit 491
  WARNING 04: minimum elevation drop used for Conduit 493
  WARNING 04: minimum elevation drop used for Conduit 495
  WARNING 04: minimum elevation drop used for Conduit 497
  WARNING 04: minimum elevation drop used for Conduit 499
  WARNING 04: minimum elevation drop used for Conduit 501
  WARNING 04: minimum elevation drop used for Conduit 503
  WARNING 04: minimum elevation drop used for Conduit 505
  WARNING 04: minimum elevation drop used for Conduit 507
  WARNING 04: minimum elevation drop used for Conduit 509
  WARNING 04: minimum elevation drop used for Conduit 51
  WARNING 04: minimum elevation drop used for Conduit 511
  WARNING 04: minimum elevation drop used for Conduit 513
  WARNING 04: minimum elevation drop used for Conduit 515
  WARNING 04: minimum elevation drop used for Conduit 517
  WARNING 04: minimum elevation drop used for Conduit 519
  WARNING 04: minimum elevation drop used for Conduit 521
  WARNING 04: minimum elevation drop used for Conduit 523
  WARNING 04: minimum elevation drop used for Conduit 525
  WARNING 04: minimum elevation drop used for Conduit 527
  WARNING 04: minimum elevation drop used for Conduit 529
  WARNING 04: minimum elevation drop used for Conduit 53
  WARNING 04: minimum elevation drop used for Conduit 531
  WARNING 04: minimum elevation drop used for Conduit 533
  WARNING 04: minimum elevation drop used for Conduit 535
  WARNING 04: minimum elevation drop used for Conduit 537
  WARNING 04: minimum elevation drop used for Conduit 539
  WARNING 04: minimum elevation drop used for Conduit 541
  WARNING 04: minimum elevation drop used for Conduit 543
  WARNING 04: minimum elevation drop used for Conduit 545
  WARNING 04: minimum elevation drop used for Conduit 547
  WARNING 04: minimum elevation drop used for Conduit 549
  WARNING 04: minimum elevation drop used for Conduit 55
  WARNING 04: minimum elevation drop used for Conduit 551
  WARNING 04: minimum elevation drop used for Conduit 553
  WARNING 04: minimum elevation drop used for Conduit 555
  WARNING 04: minimum elevation drop used for Conduit 557
  WARNING 04: minimum elevation drop used for Conduit 559
  WARNING 04: minimum elevation drop used for Conduit 561
  WARNING 04: minimum elevation drop used for Conduit 563
  WARNING 04: minimum elevation drop used for Conduit 565
  WARNING 04: minimum elevation drop used for Conduit 567
  WARNING 04: minimum elevation drop used for Conduit 569
  WARNING 04: minimum elevation drop used for Conduit 57
  WARNING 04: minimum elevation drop used for Conduit 571
  WARNING 04: minimum elevation drop used for Conduit 573
  WARNING 04: minimum elevation drop used for Conduit 575
  WARNING 04: minimum elevation drop used for Conduit 577
  WARNING 04: minimum elevation drop used for Conduit 579
  WARNING 04: minimum elevation drop used for Conduit 581
  WARNING 04: minimum elevation drop used for Conduit 583
  WARNING 04: minimum elevation drop used for Conduit 585
  WARNING 04: minimum elevation drop used for Conduit 587
  WARNING 04: minimum elevation drop used for Conduit 589
  WARNING 04: minimum elevation drop used for Conduit 59
  WARNING 04: minimum elevation drop used for Conduit 591
  WARNING 04: minimum elevation drop used for Conduit 593
  WARNING 04: minimum elevation drop used for Conduit 595
  WARNING 04: minimum elevation drop used for Conduit 597
  WARNING 04: minimum elevation drop used for Conduit 599
  WARNING 04: minimum elevation drop used for Conduit 601
  WARNING 04: minimum elevation drop used for Conduit 603
  WARNING 04: minimum elevation drop used for Conduit 605
  WARNING 04: minimum elevation drop used for Conduit 607
  WARNING 04: minimum elevation drop used for Conduit 609
  WARNING 04: minimum elevation drop used for Conduit 61
  WARNING 04: minimum elevation drop used for Conduit 611
  WARNING 04: minimum elevation drop used for Conduit 613
  WARNING 08: elevation drop exceeds length for Conduit 615
  WARNING 04: minimum elevation drop used for Conduit 617
  WARNING 04: minimum elevation drop used for Conduit 619
  WARNING 04: minimum elevation drop used for Conduit 621
  WARNING 04: minimum elevation drop used for Conduit 623
  WARNING 04: minimum elevation drop used for Conduit 625
  WARNING 04: minimum elevation drop used for Conduit 627
  WARNING 04: minimum elevation drop used for Conduit 629
  WARNING 04: minimum elevation drop used for Conduit 63
  WARNING 04: minimum elevation drop used for Conduit 631
  WARNING 04: minimum elevation drop used for Conduit 633
  WARNING 04: minimum elevation drop used for Conduit 635
  WARNING 04: minimum elevation drop used for Conduit 637
  WARNING 04: minimum elevation drop used for Conduit 641
  WARNING 04: minimum elevation drop used for Conduit 643
  WARNING 04: minimum elevation drop used for Conduit 645
  WARNING 04: minimum elevation drop used for Conduit 647
  WARNING 04: minimum elevation drop used for Conduit 65
  WARNING 04: minimum elevation drop used for Conduit 651
  WARNING 04: minimum elevation drop used for Conduit 653
  WARNING 04: minimum elevation drop used for Conduit 655
  WARNING 04: minimum elevation drop used for Conduit 657
  WARNING 04: minimum elevation drop used for Conduit 659
  WARNING 04: minimum elevation drop used for Conduit 661
  WARNING 04: minimum elevation drop used for Conduit 663
  WARNING 04: minimum elevation drop used for Conduit 665
  WARNING 04: minimum elevation drop used for Conduit 667
  WARNING 04: minimum elevation drop used for Conduit 669
  WARNING 04: minimum elevation drop used for Conduit 67
  WARNING 04: minimum elevation drop used for Conduit 671
  WARNING 04: minimum elevation drop used for Conduit 673
  WARNING 04: minimum elevation drop used for Conduit 675
  WARNING 04: minimum elevation drop used for Conduit 677
  WARNING 04: minimum elevation drop used for Conduit 679
  WARNING 04: minimum elevation drop used for Conduit 681
  WARNING 04: minimum elevation drop used for Conduit 683
  WARNING 04: minimum elevation drop used for Conduit 685
  WARNING 04: minimum elevation drop used for Conduit 687
  WARNING 04: minimum elevation drop used for Conduit 689
  WARNING 04: minimum elevation drop used for Conduit 69
  WARNING 04: minimum elevation drop used for Conduit 691
  WARNING 04: minimum elevation drop used for Conduit 693
  WARNING 04: minimum elevation drop used for Conduit 695
  WARNING 04: minimum elevation drop used for Conduit 697
  WARNING 04: minimum elevation drop used for Conduit 699
  WARNING 04: minimum elevation drop used for Conduit 701
  WARNING 04: minimum elevation drop used for Conduit 703
  WARNING 04: minimum elevation drop used for Conduit 705
  WARNING 04: minimum elevation drop used for Conduit 707
  WARNING 04: minimum elevation drop used for Conduit 709
  WARNING 04: minimum elevation drop used for Conduit 71
  WARNING 04: minimum elevation drop used for Conduit 711
  WARNING 04: minimum elevation drop used for Conduit 713
  WARNING 04: minimum elevation drop used for Conduit 715
  WARNING 04: minimum elevation drop used for Conduit 717
  WARNING 04: minimum elevation drop used for Conduit 719
  WARNING 04: minimum elevation drop used for Conduit 721
  WARNING 04: minimum elevation drop used for Conduit 723
  WARNING 04: minimum elevation drop used for Conduit 725
  WARNING 04: minimum elevation drop used for Conduit 727
  WARNING 04: minimum elevation drop used for Conduit 729
  WARNING 04: minimum elevation drop used for Conduit 73
  WARNING 04: minimum elevation drop used for Conduit 731
  WARNING 04: minimum elevation drop used for Conduit 733
  WARNING 04: minimum elevation drop used for Conduit 735
  WARNING 04: minimum elevation drop used for Conduit 737
  WARNING 04: minimum elevation drop used for Conduit 739
  WARNING 04: minimum elevation drop used for Conduit 741
  WARNING 04: minimum elevation drop used for Conduit 743
  WARNING 04: minimum elevation drop used for Conduit 745
  WARNING 04: minimum elevation drop used for Conduit 747
  WARNING 04: minimum elevation drop used for Conduit 749
  WARNING 04: minimum elevation drop used for Conduit 75
  WARNING 04: minimum elevation drop used for Conduit 751
  WARNING 04: minimum elevation drop used for Conduit 753
  WARNING 04: minimum elevation drop used for Conduit 755
  WARNING 04: minimum elevation drop used for Conduit 757
  WARNING 04: minimum elevation drop used for Conduit 759
  WARNING 04: minimum elevation drop used for Conduit 761
  WARNING 04: minimum elevation drop used for Conduit 763
  WARNING 04: minimum elevation drop used for Conduit 765
  WARNING 04: minimum elevation drop used for Conduit 767
  WARNING 04: minimum elevation drop used for Conduit 769
  WARNING 04: minimum elevation drop used for Conduit 77
  WARNING 04: minimum elevation drop used for Conduit 771
  WARNING 04: minimum elevation drop used for Conduit 773
  WARNING 04: minimum elevation drop used for Conduit 775
  WARNING 04: minimum elevation drop used for Conduit 779
  WARNING 04: minimum elevation drop used for Conduit 781
  WARNING 04: minimum elevation drop used for Conduit 783
  WARNING 08: elevation drop exceeds length for Conduit 785
  WARNING 04: minimum elevation drop used for Conduit 787
  WARNING 04: minimum elevation drop used for Conduit 79
  WARNING 04: minimum elevation drop used for Conduit 81
  WARNING 04: minimum elevation drop used for Conduit 83
  WARNING 04: minimum elevation drop used for Conduit 85
  WARNING 04: minimum elevation drop used for Conduit 87
  WARNING 04: minimum elevation drop used for Conduit 91
  WARNING 04: minimum elevation drop used for Conduit 93
  WARNING 04: minimum elevation drop used for Conduit 95
  WARNING 04: minimum elevation drop used for Conduit 97
  WARNING 04: minimum elevation drop used for Conduit 99
  WARNING 02: maximum depth increased for Node NL_638
  WARNING 02: maximum depth increased for Node NL_784
  
  *********************************************************
  NOTE: The summary statistics displayed in this report are
  based on results found at every computational time step,  
  not just on results from each reporting time step.
  *********************************************************
  
  ****************
  Analysis Options
  ****************
  Flow Units ............... CFS
  Process Models:
    Rainfall/Runoff ........ NO
    RDII ................... NO
    Snowmelt ............... NO
    Groundwater ............ NO
    Flow Routing ........... YES
    Ponding Allowed ........ NO
    Water Quality .......... NO
  Flow Routing Method ...... DYNWAVE
  Starting Date ............ 01/01/2002 00:00:00
  Ending Date .............. 01/02/2002 12:00:00
  Antecedent Dry Days ...... 5.0
  Report Time Step ......... 00:05:00
  Routing Time Step ........ 60.00 sec
  Variable Time Step ....... YES
  Maximum Trials ........... 8
  Number of Threads ........ 8
  Head Tolerance ........... 0.001000 ft
  
  
  **************************        Volume        Volume
  Flow Routing Continuity        acre-feet      10^6 gal
  **************************     ---------     ---------
  Dry Weather Inflow .......        21.179         6.902
  Wet Weather Inflow .......         0.000         0.000
  Groundwater Inflow .......         0.000         0.000
  RDII Inflow ..............         0.000         0.000
  External Inflow ..........         0.000         0.000
  External Outflow .........         4.574         1.491
  Flooding Loss ............        14.602         4.758
  Evaporation Loss .........         0.000         0.000
  Exfiltration Loss ........         0.000         0.000
  Initial Stored Volume ....         0.004         0.001
  Final Stored Volume ......         1.984         0.647
  Continuity Error (%) .....         0.106
  
  
  *************************
  Highest Continuity Errors
  *************************
  Node NL_782 (17.62%)
  Node NL_564 (11.33%)
  Node 9008 (-10.51%)
  Node 9006 (-10.47%)
  Node NL_112 (9.08%)
  
  
  ***************************
  Time-Step Critical Elements
  ***************************
  Link 407 (33.11%)
  Link 267 (16.17%)
  Node 9008 (9.49%)
  Link 783 (8.81%)
  Node 9006 (2.91%)
  
  
  ********************************
  Highest Flow Instability Indexes
  ********************************
  Link 413 (49)
  Link 415 (47)
  Link 267 (46)
  Link 167 (44)
  Link 165 (44)
  
  
  *************************
  Routing Time Step Summary
  *************************
  Minimum Time Step           :     0.36 sec
  Average Time Step           :    16.98 sec
  Maximum Time Step           :    51.49 sec
  Percent in Steady State     :     0.00
  Average Iterations per Step :     7.20
  Percent Not Converging      :    85.85
  
  
  ******************
  Node Depth Summary
  ******************
  
  ---------------------------------------------------------------------------------
                                 Average  Maximum  Maximum  Time of Max    Reported
                                   Depth    Depth      HGL   Occurrence   Max Depth
  Node                 Type         Feet     Feet     Feet  days hr:min        Feet
  ---------------------------------------------------------------------------------
  20                   JUNCTION     4.86     7.08   107.08     1  07:54        7.07
  22                   JUNCTION     6.73     8.98   108.98     1  07:25        8.98
  24                   JUNCTION     7.67     9.91   109.91     0  07:29        9.91
  26                   JUNCTION     8.11    10.00   110.00     0  07:28       10.00
  28                   JUNCTION     8.14    10.00   110.00     0  07:00       10.00
  30                   JUNCTION     8.40    10.00   110.00     0  06:38       10.00
  32                   JUNCTION     8.36    10.00   110.00     0  07:00       10.00
  34                   JUNCTION     8.58    10.00   110.00     0  06:03       10.00
  36                   JUNCTION     7.71    10.00   110.00     0  07:29       10.00
  38                   JUNCTION     5.60     9.16   109.16     0  07:46        9.15
  40                   JUNCTION     7.69     9.85   109.85     1  07:16        9.84
  42                   JUNCTION     7.93    10.00   110.00     0  07:28        9.98
  44                   JUNCTION     8.10    10.00   110.00     0  07:00       10.00
  46                   JUNCTION     7.74    10.00   110.00     0  07:26       10.00
  48                   JUNCTION     7.67    10.00   110.00     0  07:26       10.00
  50                   JUNCTION     7.65    10.00   110.00     0  07:24       10.00
  52                   JUNCTION     7.65    10.00   110.00     0  07:24       10.00
  54                   JUNCTION     7.75    10.00   110.00     0  07:26       10.00
  56                   JUNCTION     8.20    10.00   110.00     0  07:00       10.00
  58                   JUNCTION     8.19    10.00   110.00     0  06:54       10.00
  60                   JUNCTION     8.30    10.00   110.00     0  06:40       10.00
  62                   JUNCTION     8.31    10.00   110.00     0  06:40       10.00
  64                   JUNCTION     3.58     7.57   107.57     0  20:35        7.41
  66                   JUNCTION     3.51     7.27   107.27     0  21:04        7.22
  68                   JUNCTION     5.93     9.73   109.73     1  07:21        9.70
  70                   JUNCTION     7.10    10.00   110.00     0  07:45       10.00
  72                   JUNCTION     5.94     9.76   109.76     1  07:22        9.72
  74                   JUNCTION     7.22    10.00   110.00     0  07:31       10.00
  76                   JUNCTION     7.30    10.00   110.00     0  07:24       10.00
  78                   JUNCTION     7.30    10.00   110.00     0  07:15       10.00
  80                   JUNCTION     7.32    10.00   110.00     0  07:15       10.00
  82                   JUNCTION     6.08    10.00   110.00     0  20:19       10.00
  84                   JUNCTION     1.40     2.96   102.96     0  19:15        2.63
  86                   JUNCTION     1.49     4.51   104.51     1  09:45        3.01
  88                   JUNCTION     2.09     4.23   104.23     1  07:33        4.21
  90                   JUNCTION     2.15     4.44   104.44     1  07:32        4.43
  92                   JUNCTION     6.03     9.97   109.97     1  07:23        9.94
  NL_100               JUNCTION     7.66    10.00   110.00     0  07:26       10.00
  NL_102               JUNCTION     7.64    10.00   110.00     0  07:24       10.00
  NL_104               JUNCTION     7.63    10.00   110.00     0  07:26       10.00
  NL_106               JUNCTION     7.63    10.00   110.00     0  07:26       10.00
  NL_108               JUNCTION     7.62    10.00   110.00     0  07:26       10.00
  NL_110               JUNCTION     7.63    10.00   110.00     0  07:26       10.00
  NL_112               JUNCTION     7.63    10.00   110.00     0  07:26       10.00
  NL_114               JUNCTION     7.64    10.00   110.00     0  07:26       10.00
  NL_116               JUNCTION     7.65    10.00   110.00     0  07:26       10.00
  NL_118               JUNCTION     7.69    10.00   110.00     0  07:26       10.00
  NL_120               JUNCTION     7.71    10.00   110.00     0  07:26       10.00
  NL_122               JUNCTION     7.74    10.00   110.00     0  07:26       10.00
  NL_124               JUNCTION     7.74    10.00   110.00     0  07:26       10.00
  NL_126               JUNCTION     7.73    10.00   110.00     0  07:26       10.00
  NL_128               JUNCTION     7.72    10.00   110.00     0  07:26       10.00
  NL_130               JUNCTION     7.72    10.00   110.00     0  07:26       10.00
  NL_132               JUNCTION     7.73    10.00   110.00     0  07:26       10.00
  NL_134               JUNCTION     7.73    10.00   110.00     0  07:26       10.00
  NL_136               JUNCTION     7.72    10.00   110.00     0  07:26       10.00
  NL_138               JUNCTION     7.71    10.00   110.00     0  07:26       10.00
  NL_140               JUNCTION     7.69    10.00   110.00     0  07:26        9.98
  NL_142               JUNCTION     7.68    10.00   110.00     0  07:26        9.95
  NL_144               JUNCTION     7.68     9.99   109.99     0  07:26        9.90
  NL_146               JUNCTION     7.68     9.90   109.90     1  07:15        9.87
  NL_148               JUNCTION     8.06    10.00   110.00     0  07:27       10.00
  NL_150               JUNCTION     8.03    10.00   110.00     0  07:27       10.00
  NL_152               JUNCTION     8.00    10.00   110.00     0  07:27       10.00
  NL_154               JUNCTION     7.97    10.00   110.00     0  07:28        9.99
  NL_156               JUNCTION     5.50     8.88   108.88     1  07:52        8.87
  NL_158               JUNCTION     5.40     8.60   108.60     1  07:44        8.60
  NL_160               JUNCTION     5.30     8.32   108.32     1  07:50        8.31
  NL_162               JUNCTION     5.23     8.11   108.11     1  07:50        8.10
  NL_164               JUNCTION     5.15     7.89   107.89     1  07:50        7.89
  NL_166               JUNCTION     5.07     7.67   107.67     0  07:54        7.66
  NL_168               JUNCTION     4.97     7.37   107.37     0  07:45        7.37
  NL_170               JUNCTION     4.92     7.22   107.22     0  07:46        7.22
  NL_172               JUNCTION     7.46     9.65   109.65     1  07:28        9.64
  NL_174               JUNCTION     7.26     9.47   109.47     1  07:47        9.46
  NL_176               JUNCTION     6.99     9.22   109.22     0  07:55        9.21
  NL_178               JUNCTION     7.81     9.91   109.91     0  07:30        9.91
  NL_180               JUNCTION     1.99     2.80   102.80     0  07:54        2.80
  NL_182               JUNCTION     3.52     5.07   105.07     0  07:53        5.06
  NL_184               JUNCTION     5.47     7.69   107.69     0  07:42        7.69
  NL_186               JUNCTION     6.06     8.31   108.31     1  07:57        8.30
  NL_188               JUNCTION     6.93     9.18   109.18     1  07:54        9.18
  NL_190               JUNCTION     7.14     9.39   109.39     0  07:35        9.38
  NL_192               JUNCTION     7.40     9.64   109.64     0  07:30        9.64
  NL_194               JUNCTION     7.69     9.99   109.99     0  07:29        9.98
  NL_196               JUNCTION     7.68     9.97   109.97     0  07:29        9.96
  NL_198               JUNCTION     7.67     9.94   109.94     0  07:29        9.94
  NL_200               JUNCTION     7.79     9.94   109.94     0  07:30        9.94
  NL_202               JUNCTION     7.95     9.97   109.97     0  07:29        9.97
  NL_204               JUNCTION     8.11    10.00   110.00     0  07:28       10.00
  NL_206               JUNCTION     8.12    10.00   110.00     0  07:28       10.00
  NL_208               JUNCTION     8.18    10.00   110.00     0  07:28       10.00
  NL_210               JUNCTION     8.26    10.00   110.00     0  07:28       10.00
  NL_212               JUNCTION     8.37    10.00   110.00     0  07:00       10.00
  NL_214               JUNCTION     8.38    10.00   110.00     0  07:00       10.00
  NL_216               JUNCTION     8.38    10.00   110.00     0  07:00       10.00
  NL_218               JUNCTION     8.40    10.00   110.00     0  07:00       10.00
  NL_220               JUNCTION     8.43    10.00   110.00     0  07:00       10.00
  NL_222               JUNCTION     8.45    10.00   110.00     0  07:01       10.00
  NL_224               JUNCTION     8.47    10.00   110.00     0  07:01       10.00
  NL_226               JUNCTION     8.51    10.00   110.00     0  07:01       10.00
  NL_228               JUNCTION     8.55    10.00   110.00     0  07:01       10.00
  NL_230               JUNCTION     7.97    10.00   110.00     0  07:28       10.00
  NL_232               JUNCTION     8.00    10.00   110.00     0  07:28       10.00
  NL_234               JUNCTION     8.03    10.00   110.00     0  07:28       10.00
  NL_236               JUNCTION     8.07    10.00   110.00     0  07:28       10.00
  NL_238               JUNCTION     8.12    10.00   110.00     0  07:28       10.00
  NL_240               JUNCTION     8.16    10.00   110.00     0  07:28       10.00
  NL_242               JUNCTION     8.21    10.00   110.00     0  07:00       10.00
  NL_244               JUNCTION     8.23    10.00   110.00     0  07:00       10.00
  NL_246               JUNCTION     8.25    10.00   110.00     0  06:56       10.00
  NL_248               JUNCTION     8.27    10.00   110.00     0  06:56       10.00
  NL_250               JUNCTION     8.30    10.00   110.00     0  06:40       10.00
  NL_252               JUNCTION     8.30    10.00   110.00     0  06:40       10.00
  NL_254               JUNCTION     8.31    10.00   110.00     0  06:40       10.00
  NL_256               JUNCTION     8.19    10.00   110.00     0  07:00       10.00
  NL_258               JUNCTION     8.19    10.00   110.00     0  07:00       10.00
  NL_260               JUNCTION     8.18    10.00   110.00     0  06:55       10.00
  NL_262               JUNCTION     8.18    10.00   110.00     0  06:55       10.00
  NL_264               JUNCTION     8.18    10.00   110.00     0  06:55       10.00
  NL_266               JUNCTION     8.19    10.00   110.00     0  06:55       10.00
  NL_268               JUNCTION     8.19    10.00   110.00     0  06:54       10.00
  NL_270               JUNCTION     1.29     2.98   102.98     0  20:40        2.85
  NL_272               JUNCTION     2.34     4.80   104.80     0  20:40        4.74
  NL_274               JUNCTION     3.57     7.44   107.44     0  20:35        7.34
  NL_276               JUNCTION     3.55     7.32   107.32     0  21:04        7.23
  NL_278               JUNCTION     3.63     7.95   107.95     0  21:09        7.68
  NL_280               JUNCTION     3.75     8.71   108.71     0  21:09        8.51
  NL_282               JUNCTION     3.88     9.45   109.45     0  20:43        9.28
  NL_284               JUNCTION     3.99    10.00   110.00     0  20:34       10.00
  NL_286               JUNCTION     1.18     2.27   102.27     0  19:16        2.21
  NL_288               JUNCTION     1.29     2.64   102.64     1  08:01        2.36
  NL_290               JUNCTION     1.41     2.96   102.96     0  19:15        2.65
  NL_292               JUNCTION     1.42     3.06   103.06     0  20:20        2.56
  NL_294               JUNCTION     1.43     2.89   102.89     0  20:20        2.43
  NL_296               JUNCTION     1.45     2.95   102.95     1  09:45        2.42
  NL_298               JUNCTION     1.47     3.63   103.63     1  09:45        2.72
  NL_300               JUNCTION     1.48     4.29   104.29     1  09:45        2.93
  NL_302               JUNCTION     1.47     3.04   103.04     0  19:15        2.65
  NL_304               JUNCTION     1.53     2.98   102.98     1  07:57        2.77
  NL_306               JUNCTION     1.60     3.18   103.18     1  07:50        3.03
  NL_308               JUNCTION     1.66     3.35   103.35     1  07:50        3.22
  NL_310               JUNCTION     1.73     3.47   103.47     1  07:50        3.41
  NL_312               JUNCTION     1.81     3.61   103.61     1  07:23        3.58
  NL_314               JUNCTION     1.88     3.82   103.82     1  07:47        3.71
  NL_316               JUNCTION     1.95     3.96   103.96     1  07:47        3.82
  NL_318               JUNCTION     2.02     4.10   104.10     1  07:47        4.03
  NL_320               JUNCTION     2.10     4.27   104.27     1  07:33        4.26
  NL_322               JUNCTION     2.12     4.32   104.32     1  07:34        4.31
  NL_324               JUNCTION     2.14     4.38   104.38     1  07:32        4.37
  NL_326               JUNCTION     3.93     7.68   107.68     0  21:04        7.66
  NL_328               JUNCTION     4.31     8.06   108.06     0  21:04        8.06
  NL_330               JUNCTION     4.65     8.41   108.41     0  21:04        8.41
  NL_332               JUNCTION     5.01     8.76   108.76     0  20:37        8.75
  NL_334               JUNCTION     5.45     9.22   109.22     0  20:37        9.16
  NL_336               JUNCTION     6.01     9.75   109.75     1  07:23        9.73
  NL_338               JUNCTION     6.10     9.77   109.77     1  07:22        9.76
  NL_340               JUNCTION     6.20     9.81   109.81     0  20:23        9.79
  NL_342               JUNCTION     6.30     9.83   109.83     1  07:50        9.83
  NL_344               JUNCTION     6.44     9.88   109.88     1  07:50        9.87
  NL_346               JUNCTION     6.56     9.91   109.91     1  07:50        9.90
  NL_348               JUNCTION     6.67     9.94   109.94     1  07:50        9.93
  NL_350               JUNCTION     6.78     9.97   109.97     0  20:19        9.95
  NL_352               JUNCTION     6.87     9.98   109.98     0  20:19        9.97
  NL_354               JUNCTION     6.99     9.99   109.99     0  20:19        9.99
  NL_356               JUNCTION     5.93     9.73   109.73     1  07:21        9.70
  NL_358               JUNCTION     5.93     9.74   109.74     1  07:23        9.71
  NL_360               JUNCTION     5.93     9.74   109.74     1  07:22        9.71
  NL_362               JUNCTION     5.93     9.75   109.75     1  07:22        9.72
  NL_364               JUNCTION     5.95     9.77   109.77     1  07:23        9.74
  NL_366               JUNCTION     5.96     9.82   109.82     1  07:23        9.80
  NL_368               JUNCTION     5.98     9.86   109.86     1  07:23        9.83
  NL_370               JUNCTION     6.00     9.91   109.91     1  07:23        9.88
  NL_372               JUNCTION     6.04     9.99   109.99     1  07:23        9.96
  NL_374               JUNCTION     6.05    10.00   110.00     1  07:23        9.97
  NL_376               JUNCTION     6.06    10.00   110.00     1  07:23        9.98
  NL_378               JUNCTION     6.07    10.00   110.00     0  20:19        9.99
  NL_380               JUNCTION     7.11    10.00   110.00     0  07:45       10.00
  NL_382               JUNCTION     7.13    10.00   110.00     0  07:45       10.00
  NL_384               JUNCTION     7.15    10.00   110.00     0  07:45       10.00
  NL_386               JUNCTION     7.17    10.00   110.00     0  07:45       10.00
  NL_388               JUNCTION     7.19    10.00   110.00     0  07:40       10.00
  NL_390               JUNCTION     7.23    10.00   110.00     0  07:31       10.00
  NL_392               JUNCTION     7.24    10.00   110.00     0  07:31       10.00
  NL_394               JUNCTION     7.24    10.00   110.00     0  07:31       10.00
  NL_396               JUNCTION     7.25    10.00   110.00     0  07:31       10.00
  NL_398               JUNCTION     7.27    10.00   110.00     0  07:30       10.00
  NL_400               JUNCTION     7.28    10.00   110.00     0  07:29       10.00
  NL_402               JUNCTION     7.30    10.00   110.00     0  07:15       10.00
  NL_404               JUNCTION     7.30    10.00   110.00     0  07:15       10.00
  NL_406               JUNCTION     7.31    10.00   110.00     0  07:15       10.00
  NL_408               JUNCTION     7.31    10.00   110.00     0  07:15       10.00
  NL_410               JUNCTION     1.35     1.84   101.84     1  07:58        1.83
  NL_412               JUNCTION     2.78     3.98   103.98     1  07:57        3.98
  NL_414               JUNCTION     4.22     6.12   106.12     1  07:40        6.12
  NL_416               JUNCTION     4.89     7.14   107.14     0  07:52        7.14
  NL_418               JUNCTION     4.94     7.29   107.29     1  07:42        7.28
  NL_420               JUNCTION     5.01     7.50   107.50     0  07:45        7.49
  NL_422               JUNCTION     5.11     7.78   107.78     1  07:50        7.77
  NL_424               JUNCTION     5.19     8.00   108.00     1  07:50        7.99
  NL_426               JUNCTION     5.26     8.20   108.20     0  07:53        8.20
  NL_428               JUNCTION     5.35     8.46   108.46     0  07:55        8.45
  NL_430               JUNCTION     5.46     8.75   108.75     1  07:48        8.74
  NL_432               JUNCTION     5.55     9.00   109.00     0  07:46        9.00
  NL_434               JUNCTION     5.19     7.41   107.41     1  07:33        7.40
  NL_436               JUNCTION     5.79     8.03   108.03     0  07:51        8.03
  NL_438               JUNCTION     6.39     8.64   108.64     1  07:43        8.63
  NL_440               JUNCTION     6.83     9.08   109.08     1  07:43        9.08
  NL_442               JUNCTION     7.04     9.28   109.28     0  07:36        9.28
  NL_444               JUNCTION     7.27     9.51   109.51     0  07:37        9.51
  NL_446               JUNCTION     7.53     9.78   109.78     0  07:30        9.78
  NL_448               JUNCTION     7.67     9.93   109.93     0  07:29        9.92
  NL_450               JUNCTION     7.68     9.95   109.95     0  07:29        9.95
  NL_452               JUNCTION     7.69     9.98   109.98     0  07:29        9.97
  NL_454               JUNCTION     7.70    10.00   110.00     0  07:29        9.99
  NL_456               JUNCTION     6.85     9.10   109.10     1  07:57        9.09
  NL_458               JUNCTION     7.12     9.33   109.33     1  07:25        9.33
  NL_460               JUNCTION     7.36     9.55   109.55     0  07:53        9.55
  NL_462               JUNCTION     7.58     9.76   109.76     1  07:20        9.75
  NL_464               JUNCTION     7.73     9.93   109.93     0  07:29        9.92
  NL_466               JUNCTION     7.87     9.96   109.96     0  07:29        9.95
  NL_468               JUNCTION     8.03     9.99   109.99     0  07:29        9.99
  NL_470               JUNCTION     8.11    10.00   110.00     0  07:28       10.00
  NL_472               JUNCTION     8.12    10.00   110.00     0  07:27       10.00
  NL_474               JUNCTION     8.13    10.00   110.00     0  07:24       10.00
  NL_476               JUNCTION     8.15    10.00   110.00     0  07:28       10.00
  NL_478               JUNCTION     8.22    10.00   110.00     0  07:28       10.00
  NL_480               JUNCTION     8.31    10.00   110.00     0  07:28       10.00
  NL_482               JUNCTION     8.36    10.00   110.00     0  07:00       10.00
  NL_484               JUNCTION     8.37    10.00   110.00     0  07:00       10.00
  NL_486               JUNCTION     8.39    10.00   110.00     0  07:00       10.00
  NL_488               JUNCTION     8.37    10.00   110.00     0  07:00       10.00
  NL_490               JUNCTION     8.39    10.00   110.00     0  07:00       10.00
  NL_492               JUNCTION     8.41    10.00   110.00     0  07:00       10.00
  NL_494               JUNCTION     8.44    10.00   110.00     0  07:01       10.00
  NL_496               JUNCTION     8.46    10.00   110.00     0  07:01       10.00
  NL_498               JUNCTION     8.49    10.00   110.00     0  07:01       10.00
  NL_500               JUNCTION     8.53    10.00   110.00     0  07:01       10.00
  NL_502               JUNCTION     8.57    10.00   110.00     0  07:01       10.00
  NL_504               JUNCTION     7.75     9.88   109.88     0  07:30        9.88
  NL_506               JUNCTION     7.88     9.97   109.97     0  07:28        9.95
  NL_508               JUNCTION     7.95    10.00   110.00     0  07:28        9.99
  NL_510               JUNCTION     7.98    10.00   110.00     0  07:28       10.00
  NL_512               JUNCTION     8.01    10.00   110.00     0  07:28       10.00
  NL_514               JUNCTION     8.05    10.00   110.00     0  07:28       10.00
  NL_516               JUNCTION     8.09    10.00   110.00     0  07:28       10.00
  NL_518               JUNCTION     8.14    10.00   110.00     0  07:28       10.00
  NL_520               JUNCTION     8.18    10.00   110.00     0  07:27       10.00
  NL_522               JUNCTION     7.68     9.88   109.88     1  07:15        9.85
  NL_524               JUNCTION     7.68     9.93   109.93     0  07:26        9.89
  NL_526               JUNCTION     7.68    10.00   110.00     0  07:26        9.93
  NL_528               JUNCTION     7.68    10.00   110.00     0  07:26        9.96
  NL_530               JUNCTION     7.70    10.00   110.00     0  07:26        9.99
  NL_532               JUNCTION     7.71    10.00   110.00     0  07:26       10.00
  NL_534               JUNCTION     7.73    10.00   110.00     0  07:26       10.00
  NL_536               JUNCTION     7.73    10.00   110.00     0  07:26       10.00
  NL_538               JUNCTION     7.73    10.00   110.00     0  07:26       10.00
  NL_540               JUNCTION     7.73    10.00   110.00     0  07:26       10.00
  NL_542               JUNCTION     7.72    10.00   110.00     0  07:26       10.00
  NL_544               JUNCTION     7.73    10.00   110.00     0  07:26       10.00
  NL_546               JUNCTION     7.73    10.00   110.00     0  07:26       10.00
  NL_548               JUNCTION     7.74    10.00   110.00     0  07:26       10.00
  NL_550               JUNCTION     7.75    10.00   110.00     0  07:26       10.00
  NL_552               JUNCTION     7.73    10.00   110.00     0  07:26       10.00
  NL_554               JUNCTION     7.70    10.00   110.00     0  07:26       10.00
  NL_556               JUNCTION     7.68    10.00   110.00     0  07:26       10.00
  NL_558               JUNCTION     7.67    10.00   110.00     0  07:26       10.00
  NL_560               JUNCTION     7.66    10.00   110.00     0  07:26       10.00
  NL_562               JUNCTION     7.66    10.00   110.00     0  07:26       10.00
  NL_564               JUNCTION     7.65    10.00   110.00     0  07:26       10.00
  NL_566               JUNCTION     7.66    10.00   110.00     0  07:26       10.00
  NL_568               JUNCTION     7.65    10.00   110.00     0  07:26       10.00
  NL_570               JUNCTION     7.64    10.00   110.00     0  07:26       10.00
  NL_572               JUNCTION     7.63    10.00   110.00     0  07:26       10.00
  NL_574               JUNCTION     7.62    10.00   110.00     0  07:26       10.00
  NL_576               JUNCTION     7.62    10.00   110.00     0  07:26       10.00
  NL_578               JUNCTION     7.63    10.00   110.00     0  07:26       10.00
  NL_580               JUNCTION     7.64    10.00   110.00     0  07:26       10.00
  NL_582               JUNCTION     7.65    10.00   110.00     0  07:24       10.00
  NL_584               JUNCTION     8.18    10.00   110.00     0  06:55       10.00
  NL_586               JUNCTION     8.18    10.00   110.00     0  07:00       10.00
  NL_588               JUNCTION     8.19    10.00   110.00     0  07:00       10.00
  NL_590               JUNCTION     8.20    10.00   110.00     0  07:00       10.00
  NL_592               JUNCTION     8.21    10.00   110.00     0  07:00       10.00
  NL_594               JUNCTION     8.22    10.00   110.00     0  07:00       10.00
  NL_596               JUNCTION     8.24    10.00   110.00     0  06:56       10.00
  NL_598               JUNCTION     8.26    10.00   110.00     0  06:56       10.00
  NL_600               JUNCTION     8.29    10.00   110.00     0  06:54       10.00
  NL_602               JUNCTION     8.30    10.00   110.00     0  06:40       10.00
  NL_604               JUNCTION     8.30    10.00   110.00     0  06:40       10.00
  NL_606               JUNCTION     8.30    10.00   110.00     0  06:40       10.00
  NL_608               JUNCTION     8.31    10.00   110.00     0  06:40       10.00
  NL_610               JUNCTION     8.18    10.00   110.00     0  06:55       10.00
  NL_612               JUNCTION     8.19    10.00   110.00     0  06:55       10.00
  NL_614               JUNCTION     8.19    10.00   110.00     0  06:55       10.00
  NL_616               JUNCTION     8.19    10.00   110.00     0  06:54       10.00
  NL_618               JUNCTION   229.52   568.54   668.54     1  03:59      426.26
  NL_620               JUNCTION     1.83     3.89   103.89     0  20:40        3.73
  NL_622               JUNCTION     2.95     6.05   106.05     0  20:36        5.99
  NL_624               JUNCTION     3.53     7.30   107.30     0  21:04        7.21
  NL_626               JUNCTION     3.56     7.37   107.37     0  20:35        7.29
  NL_628               JUNCTION     3.58     7.53   107.53     0  20:35        7.38
  NL_630               JUNCTION     3.57     7.54   107.54     0  21:09        7.42
  NL_632               JUNCTION     3.69     8.33   108.33     0  21:09        8.08
  NL_634               JUNCTION     3.82     9.06   109.06     0  21:09        8.90
  NL_636               JUNCTION     3.93     9.68   109.68     0  21:09        9.62
  NL_638               JUNCTION     4.04    11.48   111.48     0  21:03       10.16
  NL_640               JUNCTION     1.23     2.38   102.38     0  19:16        2.26
  NL_644               JUNCTION     1.43     3.02   103.02     0  19:15        2.66
  NL_646               JUNCTION     1.40     2.99   102.99     0  19:15        2.65
  NL_648               JUNCTION     1.41     3.04   103.04     0  20:20        2.63
  NL_650               JUNCTION     1.42     3.01   103.01     0  20:20        2.49
  NL_654               JUNCTION     1.46     3.26   103.26     1  09:45        2.57
  NL_656               JUNCTION     1.48     4.01   104.01     1  09:45        2.84
  NL_658               JUNCTION     1.48     4.44   104.44     1  09:45        2.99
  NL_660               JUNCTION     1.50     3.03   103.03     0  19:15        2.65
  NL_662               JUNCTION     1.57     3.07   103.07     1  07:57        2.89
  NL_664               JUNCTION     1.63     3.28   103.28     1  07:50        3.13
  NL_666               JUNCTION     1.70     3.42   103.42     1  07:50        3.32
  NL_668               JUNCTION     1.77     3.54   103.54     1  07:50        3.49
  NL_670               JUNCTION     1.85     3.73   103.73     1  07:47        3.66
  NL_672               JUNCTION     1.92     3.89   103.89     1  07:47        3.77
  NL_674               JUNCTION     1.98     4.03   104.03     1  07:47        3.92
  NL_676               JUNCTION     2.05     4.15   104.15     1  07:47        4.11
  NL_678               JUNCTION     2.09     4.25   104.25     1  07:33        4.24
  NL_680               JUNCTION     2.11     4.30   104.30     1  07:34        4.29
  NL_682               JUNCTION     2.13     4.35   104.35     1  07:32        4.35
  NL_684               JUNCTION     2.15     4.41   104.41     1  07:32        4.40
  NL_686               JUNCTION     3.73     7.49   107.49     0  21:04        7.45
  NL_688               JUNCTION     4.16     7.91   107.91     0  21:04        7.91
  NL_690               JUNCTION     4.51     8.26   108.26     0  21:04        8.26
  NL_692               JUNCTION     4.86     8.61   108.61     0  21:05        8.61
  NL_694               JUNCTION     5.26     9.01   109.01     0  20:37        8.98
  NL_696               JUNCTION     5.72     9.49   109.49     0  20:37        9.44
  NL_698               JUNCTION     5.95     9.79   109.79     1  07:23        9.77
  NL_700               JUNCTION     5.99     9.88   109.88     1  07:23        9.86
  NL_702               JUNCTION     6.02     9.94   109.94     1  07:23        9.91
  NL_704               JUNCTION     6.04     9.98   109.98     1  07:23        9.95
  NL_706               JUNCTION     6.04    10.00   110.00     1  07:23        9.96
  NL_708               JUNCTION     6.05    10.00   110.00     1  07:23        9.97
  NL_710               JUNCTION     6.06    10.00   110.00     0  20:19        9.98
  NL_712               JUNCTION     6.07    10.00   110.00     0  20:19        9.99
  NL_714               JUNCTION     5.98     9.74   109.74     1  07:21        9.71
  NL_716               JUNCTION     6.06     9.76   109.76     1  07:22        9.75
  NL_718               JUNCTION     6.15     9.79   109.79     0  20:23        9.77
  NL_720               JUNCTION     6.25     9.82   109.82     0  20:23        9.81
  NL_722               JUNCTION     6.38     9.86   109.86     1  07:50        9.85
  NL_724               JUNCTION     6.50     9.90   109.90     1  07:50        9.89
  NL_726               JUNCTION     6.62     9.93   109.93     1  07:50        9.92
  NL_728               JUNCTION     6.73     9.95   109.95     0  20:19        9.94
  NL_730               JUNCTION     6.82     9.97   109.97     0  20:19        9.96
  NL_732               JUNCTION     6.93     9.99   109.99     0  20:19        9.98
  NL_734               JUNCTION     7.04    10.00   110.00     0  20:19       10.00
  NL_736               JUNCTION     7.10    10.00   110.00     0  07:45       10.00
  NL_738               JUNCTION     7.12    10.00   110.00     0  07:46       10.00
  NL_740               JUNCTION     7.14    10.00   110.00     0  07:45       10.00
  NL_742               JUNCTION     7.16    10.00   110.00     0  07:44       10.00
  NL_744               JUNCTION     7.18    10.00   110.00     0  07:43       10.00
  NL_746               JUNCTION     7.21    10.00   110.00     0  07:34       10.00
  NL_748               JUNCTION     7.23    10.00   110.00     0  07:31       10.00
  NL_750               JUNCTION     7.24    10.00   110.00     0  07:31       10.00
  NL_752               JUNCTION     7.25    10.00   110.00     0  07:30       10.00
  NL_754               JUNCTION     7.26    10.00   110.00     0  07:30       10.00
  NL_756               JUNCTION     7.29    10.00   110.00     0  07:28       10.00
  NL_758               JUNCTION     7.30    10.00   110.00     0  07:21       10.00
  NL_760               JUNCTION     7.30    10.00   110.00     0  07:21       10.00
  NL_762               JUNCTION     7.30    10.00   110.00     0  07:15       10.00
  NL_764               JUNCTION     7.30    10.00   110.00     0  07:15       10.00
  NL_766               JUNCTION     7.31    10.00   110.00     0  07:15       10.00
  NL_768               JUNCTION     7.32    10.00   110.00     0  07:15       10.00
  NL_770               JUNCTION     7.95    10.00   110.00     0  07:28        9.98
  NL_772               JUNCTION     7.98    10.00   110.00     0  07:28       10.00
  NL_774               JUNCTION     8.01    10.00   110.00     0  07:27       10.00
  NL_776               JUNCTION     8.04    10.00   110.00     0  07:27       10.00
  NL_778               JUNCTION     8.08    10.00   110.00     0  07:27       10.00
  NL_780               JUNCTION     1.34     2.76   102.76     0  19:15        2.48
  NL_782               JUNCTION   220.18   495.74   595.74     0  08:13      411.36
  NL_784               JUNCTION     9.01    14.28   114.28     1  08:18       12.93
  NL_96                JUNCTION     7.65    10.00   110.00     0  07:26       10.00
  NL_98                JUNCTION     7.66    10.00   110.00     0  07:26       10.00
  94                   OUTFALL      0.48     0.62   100.62     1  07:58        0.62
  9006                 STORAGE      1.11     2.23   102.23     1  07:53        2.19
  9008                 STORAGE      1.05     2.65   102.65     0  20:20        2.55
  
  
  *******************
  Node Inflow Summary
  *******************
  
  -------------------------------------------------------------------------------------------------
                                  Maximum  Maximum                  Lateral       Total        Flow
                                  Lateral    Total  Time of Max      Inflow      Inflow     Balance
                                   Inflow   Inflow   Occurrence      Volume      Volume       Error
  Node                 Type           CFS      CFS  days hr:min    10^6 gal    10^6 gal     Percent
  -------------------------------------------------------------------------------------------------
  20                   JUNCTION      0.00     2.09     1  07:38           0        1.51       0.149
  22                   JUNCTION      0.00     1.56     1  06:02           0        1.17       0.250
  24                   JUNCTION      0.19     1.43     0  06:21      0.0936        0.59       0.547
  26                   JUNCTION      0.11     1.33     0  06:08      0.0559       0.417       0.994
  28                   JUNCTION      0.19     0.19     0  07:00      0.0951      0.0951       2.062
  30                   JUNCTION      0.59     0.59     0  07:00       0.295       0.295       0.580
  32                   JUNCTION      0.24     1.24     0  06:06       0.118       0.322       1.185
  34                   JUNCTION      2.15     2.15     0  07:00        1.07        1.07       0.138
  36                   JUNCTION      0.24     0.24     0  07:00       0.118       0.118       0.992
  38                   JUNCTION      0.77     0.77     0  07:00       0.385       0.385       0.276
  40                   JUNCTION      0.08     1.66     0  06:33        0.04        0.65       0.447
  42                   JUNCTION      0.11     1.50     0  06:33      0.0524       0.429       0.750
  44                   JUNCTION      0.89     0.89     0  07:00       0.443       0.443       0.249
  46                   JUNCTION      0.49     1.72     0  07:05       0.242       0.296       0.865
  48                   JUNCTION      0.24     1.86     0  07:15       0.109       0.157       1.572
  50                   JUNCTION      0.34     0.66     0  07:17       0.156       0.157       0.585
  52                   JUNCTION      1.23     1.23     0  08:00       0.563       0.564       0.192
  54                   JUNCTION      0.30     0.45     0  07:11       0.151       0.151       0.573
  56                   JUNCTION      0.72     1.32     0  06:21       0.359       0.432       0.798
  58                   JUNCTION      0.30     0.70     0  06:23       0.147       0.161       0.836
  60                   JUNCTION      0.81     0.88     0  06:06       0.404       0.423       0.584
  62                   JUNCTION      0.45     0.45     0  07:00       0.227       0.227       0.522
  64                   JUNCTION      0.23     0.23     0  07:00       0.113       0.113      -1.714
  66                   JUNCTION      0.00     2.33     0  21:04           0        1.25       0.932
  68                   JUNCTION      0.31     1.68     0  07:16       0.153       0.831       0.431
  70                   JUNCTION      0.60     1.31     0  07:16       0.297       0.477       0.297
  72                   JUNCTION      0.13     0.13     0  07:00      0.0642      0.0642       1.803
  74                   JUNCTION      0.20     0.77     0  07:15         0.1       0.224       0.849
  76                   JUNCTION      0.07     0.65     0  07:15      0.0353       0.158       1.456
  78                   JUNCTION      0.26     0.26     0  07:00       0.131       0.131       0.731
  80                   JUNCTION      0.41     0.41     0  07:00       0.203       0.203       0.392
  82                   JUNCTION      0.28     0.46     0  07:17       0.141       0.141       0.683
  84                   JUNCTION      0.13     1.11     1  07:33       0.063       0.412       1.583
  86                   JUNCTION      0.07     0.39     0  08:01      0.0367      0.0389       1.296
  88                   JUNCTION      0.34     0.83     1  07:11       0.169       0.344       0.451
  90                   JUNCTION      0.36     0.36     0  07:00        0.18        0.18       0.239
  92                   JUNCTION      0.18     0.61     0  07:16        0.09       0.219       0.719
  NL_100               JUNCTION      0.00     0.81     0  07:15           0      0.0275       6.167
  NL_102               JUNCTION      0.00     0.92     0  07:22           0      0.0244       7.281
  NL_104               JUNCTION      0.00     0.91     0  07:22           0      0.0242       8.083
  NL_106               JUNCTION      0.00     0.90     0  07:15           0      0.0234       7.535
  NL_108               JUNCTION      0.00     0.87     0  07:19           0      0.0223       8.767
  NL_110               JUNCTION      0.00     1.32     0  07:20           0      0.0207       9.638
  NL_112               JUNCTION      0.00     1.33     0  07:19           0      0.0204       9.990
  NL_114               JUNCTION      0.00     1.58     0  07:18           0      0.0235       8.813
  NL_116               JUNCTION      0.00     1.65     0  07:18           0       0.027       8.518
  NL_118               JUNCTION      0.00     1.69     0  07:15           0      0.0489       3.683
  NL_120               JUNCTION      0.00     1.70     0  07:15           0      0.0527       3.656
  NL_122               JUNCTION      0.00     0.64     0  07:10           0      0.0403       5.264
  NL_124               JUNCTION      0.00     0.58     0  07:11           0      0.0378       5.723
  NL_126               JUNCTION      0.00     0.65     0  07:09           0      0.0368       5.968
  NL_128               JUNCTION      0.00     0.71     0  07:07           0      0.0356       6.767
  NL_130               JUNCTION      0.00     0.75     0  07:05           0      0.0346       5.957
  NL_132               JUNCTION      0.00     0.76     0  07:03           0       0.035       5.119
  NL_134               JUNCTION      0.00     0.77     0  07:00           0      0.0367       5.328
  NL_136               JUNCTION      0.00     1.24     0  07:05           0       0.217       0.890
  NL_138               JUNCTION      0.00     1.24     0  07:05           0       0.218       1.071
  NL_140               JUNCTION      0.00     1.24     0  07:05           0       0.219       1.152
  NL_142               JUNCTION      0.00     1.29     0  06:41           0       0.222       1.063
  NL_144               JUNCTION      0.00     1.38     0  06:38           0       0.225       0.916
  NL_146               JUNCTION      0.00     1.62     0  06:36           0        0.23       0.922
  NL_148               JUNCTION      0.00     0.88     0  07:00           0       0.209       1.056
  NL_150               JUNCTION      0.00     0.83     0  07:00           0       0.204       0.923
  NL_152               JUNCTION      0.00     0.79     0  07:01           0       0.201       0.961
  NL_154               JUNCTION      0.00     0.78     0  07:01           0       0.197       1.136
  NL_156               JUNCTION      0.00     0.78     1  07:53           0       0.382       0.470
  NL_158               JUNCTION      0.00     0.77     1  07:41           0       0.378       0.529
  NL_160               JUNCTION      0.00     0.77     0  07:57           0       0.374       0.486
  NL_162               JUNCTION      0.00     0.78     0  07:46           0       0.371       0.419
  NL_164               JUNCTION      0.00     0.78     0  08:00           0       0.368       0.450
  NL_166               JUNCTION      0.00     0.78     1  07:56           0       0.365       0.539
  NL_168               JUNCTION      0.00     0.78     0  07:50           0       0.361       0.430
  NL_170               JUNCTION      0.00     0.78     1  07:50           0        0.36       0.326
  NL_172               JUNCTION      0.00     0.90     1  06:02           0        0.61       0.325
  NL_174               JUNCTION      0.00     0.88     1  00:54           0       0.609       0.352
  NL_176               JUNCTION      0.00     0.88     1  00:54           0       0.608       0.383
  NL_178               JUNCTION      0.00     1.49     0  06:33           0       0.419       0.486
  NL_180               JUNCTION      0.00     2.08     1  07:31           0        1.49       0.127
  NL_182               JUNCTION      0.00     2.08     1  07:52           0         1.5       0.132
  NL_184               JUNCTION      0.00     1.54     1  00:25           0        1.15       0.135
  NL_186               JUNCTION      0.00     1.54     1  00:25           0        1.16       0.134
  NL_188               JUNCTION      0.00     1.42     0  06:22           0       0.568       0.334
  NL_190               JUNCTION      0.00     1.43     0  06:21           0       0.572       0.375
  NL_192               JUNCTION      0.00     1.43     0  06:21           0       0.577       0.404
  NL_194               JUNCTION      0.00     0.30     0  06:06           0       0.115       1.790
  NL_196               JUNCTION      0.00     0.39     0  06:07           0       0.114       1.697
  NL_198               JUNCTION      0.00     0.49     0  06:05           0       0.115       1.614
  NL_200               JUNCTION      0.00     1.29     0  06:07           0       0.393       0.710
  NL_202               JUNCTION      0.00     1.30     0  06:08           0       0.397       0.750
  NL_204               JUNCTION      0.00     0.25     0  05:35           0      0.0873       3.920
  NL_206               JUNCTION      0.00     0.19     0  07:00           0       0.084       4.421
  NL_208               JUNCTION      0.00     1.19     0  06:07           0       0.288       0.805
  NL_210               JUNCTION      0.00     1.21     0  06:06           0       0.293       0.955
  NL_212               JUNCTION      0.00     0.41     0  06:22           0      0.0788       4.223
  NL_214               JUNCTION      0.00     0.41     0  06:24           0      0.0844       3.983
  NL_216               JUNCTION      0.00     0.88     0  06:05           0       0.135       1.703
  NL_218               JUNCTION      0.00     0.95     0  06:04           0       0.139       1.673
  NL_220               JUNCTION      0.00     1.02     0  06:04           0       0.143       1.676
  NL_222               JUNCTION      0.00     1.10     0  06:03           0       0.148       1.383
  NL_224               JUNCTION      0.00     1.20     0  06:03           0       0.153       1.675
  NL_226               JUNCTION      0.00     1.28     0  06:03           0       0.159       1.841
  NL_228               JUNCTION      0.00     1.38     0  06:03           0       0.165       1.653
  NL_230               JUNCTION      0.00     0.89     0  06:31           0        0.19       1.314
  NL_232               JUNCTION      0.00     0.90     0  06:31           0       0.191       1.198
  NL_234               JUNCTION      0.00     0.90     0  06:31           0       0.194       1.190
  NL_236               JUNCTION      0.00     0.91     0  06:28           0       0.198       1.125
  NL_238               JUNCTION      0.00     0.91     0  06:28           0       0.203       1.184
  NL_240               JUNCTION      0.00     0.92     0  06:28           0       0.208       1.194
  NL_242               JUNCTION      0.00     0.84     0  06:21           0      0.0612       4.341
  NL_244               JUNCTION      0.00     0.84     0  06:21           0      0.0642       4.462
  NL_246               JUNCTION      0.00     0.84     0  06:22           0      0.0691       4.086
  NL_248               JUNCTION      0.00     0.88     0  06:05           0      0.0748       3.966
  NL_250               JUNCTION      0.00     0.32     0  06:06           0      0.0232       8.734
  NL_252               JUNCTION      0.00     0.33     0  06:06           0      0.0243       9.350
  NL_254               JUNCTION      0.00     0.32     0  06:06           0       0.028       7.412
  NL_256               JUNCTION      0.00     0.57     0  06:16           0      0.0467       5.200
  NL_258               JUNCTION      0.00     0.56     0  06:17           0      0.0418       5.138
  NL_260               JUNCTION      0.00     0.55     0  06:19           0      0.0365       6.181
  NL_262               JUNCTION      0.00     0.54     0  06:20           0      0.0315       5.316
  NL_264               JUNCTION      0.00     0.51     0  06:22           0      0.0288       3.897
  NL_266               JUNCTION      0.00     0.51     0  06:22           0      0.0291       1.356
  NL_268               JUNCTION      0.00     4.17     1  08:18           0        1.33      -1.580
  NL_270               JUNCTION      0.00     2.39     0  21:06           0        1.16       0.433
  NL_272               JUNCTION      0.00     2.31     0  21:09           0        1.18       0.725
  NL_274               JUNCTION      0.00     0.39     1  07:11           0       0.124       0.187
  NL_276               JUNCTION      0.00     0.58     1  04:00           0       0.149       2.286
  NL_278               JUNCTION      0.00     1.27     1  08:17           0       0.343       1.118
  NL_280               JUNCTION      0.00     1.27     1  08:04           0       0.337      -0.023
  NL_282               JUNCTION      0.00     1.48     0  12:58           0       0.318      -1.570
  NL_284               JUNCTION      0.00     2.24     0  21:03           0       0.322       2.476
  NL_286               JUNCTION      0.00     1.28     1  07:47           0       0.341      -2.888
  NL_288               JUNCTION      0.00     1.15     1  07:33           0       0.351       1.580
  NL_290               JUNCTION      0.00     0.75     1  09:47           0       0.122       2.968
  NL_292               JUNCTION      0.00     0.88     1  09:46           0       0.133       1.752
  NL_294               JUNCTION      0.00     0.93     1  09:46           0       0.137       1.817
  NL_296               JUNCTION      0.00     0.91     1  09:46           0       0.133       1.835
  NL_298               JUNCTION      0.00     0.75     1  09:46           0       0.112       1.140
  NL_300               JUNCTION      0.00     0.46     1  09:46           0      0.0756       1.451
  NL_302               JUNCTION      0.00     0.83     1  07:16           0       0.297       1.464
  NL_304               JUNCTION      0.00     0.87     1  07:09           0       0.304       1.306
  NL_306               JUNCTION      0.00     0.91     1  07:09           0       0.309       1.249
  NL_308               JUNCTION      0.00     0.90     1  09:46           0       0.315       1.174
  NL_310               JUNCTION      0.00     0.87     1  09:46           0       0.322       0.958
  NL_312               JUNCTION      0.00     0.81     0  19:19           0       0.327       0.785
  NL_314               JUNCTION      0.00     0.76     1  07:35           0       0.332       0.508
  NL_316               JUNCTION      0.00     0.75     1  07:50           0       0.335       0.387
  NL_318               JUNCTION      0.00     0.80     1  07:11           0       0.338       0.386
  NL_320               JUNCTION      0.00     0.61     1  09:48           0       0.178       0.860
  NL_322               JUNCTION      0.00     0.56     1  09:48           0       0.178       0.854
  NL_324               JUNCTION      0.00     0.42     1  07:11           0       0.179       0.701
  NL_326               JUNCTION      0.00     1.57     0  07:37           0       0.804       0.470
  NL_328               JUNCTION      0.00     1.57     0  07:37           0       0.809       0.268
  NL_330               JUNCTION      0.00     1.58     0  07:38           0       0.811       0.125
  NL_332               JUNCTION      0.00     1.58     0  07:38           0       0.813       0.101
  NL_334               JUNCTION      0.00     1.58     0  07:38           0       0.815       0.177
  NL_336               JUNCTION      0.00     1.23     0  07:15           0       0.419       0.333
  NL_338               JUNCTION      0.00     1.23     0  07:15           0        0.42       0.356
  NL_340               JUNCTION      0.00     1.24     0  07:15           0       0.421       0.403
  NL_342               JUNCTION      0.00     1.24     0  07:15           0       0.424       0.490
  NL_344               JUNCTION      0.00     1.25     0  07:15           0       0.427       0.433
  NL_346               JUNCTION      0.00     1.26     0  07:15           0       0.431       0.433
  NL_348               JUNCTION      0.00     1.27     0  07:16           0       0.434       0.349
  NL_350               JUNCTION      0.00     1.28     0  07:16           0       0.437       0.324
  NL_352               JUNCTION      0.00     1.29     0  07:16           0        0.44       0.355
  NL_354               JUNCTION      0.00     1.30     0  07:16           0       0.443       0.364
  NL_356               JUNCTION      0.00     0.44     0  07:14           0      0.0606       4.154
  NL_358               JUNCTION      0.00     0.41     0  07:15           0      0.0602       4.049
  NL_360               JUNCTION      0.00     0.25     0  07:15           0      0.0614       4.349
  NL_362               JUNCTION      0.00     0.19     0  07:12           0      0.0633       4.045
  NL_364               JUNCTION      0.00     0.51     0  07:16           0       0.211       0.761
  NL_366               JUNCTION      0.00     0.49     1  07:59           0       0.212       0.773
  NL_368               JUNCTION      0.00     0.49     1  07:59           0       0.213       0.813
  NL_370               JUNCTION      0.00     0.48     1  07:59           0       0.215       0.794
  NL_372               JUNCTION      0.00     0.60     0  07:16           0       0.132       1.090
  NL_374               JUNCTION      0.00     0.56     0  07:16           0       0.133       1.044
  NL_376               JUNCTION      0.00     0.51     0  07:16           0       0.135       1.006
  NL_378               JUNCTION      0.00     0.50     0  07:16           0       0.137       1.230
  NL_380               JUNCTION      0.00     0.72     0  07:16           0       0.186       0.762
  NL_382               JUNCTION      0.00     0.73     0  07:16           0       0.186       0.731
  NL_384               JUNCTION      0.00     0.74     0  07:16           0       0.187       0.872
  NL_386               JUNCTION      0.00     0.75     0  07:16           0       0.188       0.838
  NL_388               JUNCTION      0.00     0.76     0  07:15           0        0.19       0.836
  NL_390               JUNCTION      0.00     0.58     0  07:15           0       0.127       1.382
  NL_392               JUNCTION      0.00     0.59     0  07:15           0       0.128       1.111
  NL_394               JUNCTION      0.00     0.60     0  07:15           0        0.13       1.065
  NL_396               JUNCTION      0.00     0.62     0  07:15           0       0.132       1.077
  NL_398               JUNCTION      0.00     0.63     0  07:15           0       0.136       1.449
  NL_400               JUNCTION      0.00     0.64     0  07:15           0       0.138       1.391
  NL_402               JUNCTION      0.00     0.35     0  07:15           0      0.0626       2.182
  NL_404               JUNCTION      0.00     0.36     0  07:15           0       0.065       2.150
  NL_406               JUNCTION      0.00     0.38     0  07:15           0       0.068       2.099
  NL_408               JUNCTION      0.00     0.41     0  07:00           0      0.0714       2.302
  NL_410               JUNCTION      0.00     2.08     1  07:58           0        1.49       0.123
  NL_412               JUNCTION      0.00     2.08     1  07:36           0         1.5       0.139
  NL_414               JUNCTION      0.00     2.09     1  07:38           0         1.5       0.126
  NL_416               JUNCTION      0.00     0.78     1  07:45           0       0.359       0.341
  NL_418               JUNCTION      0.00     0.78     1  07:46           0        0.36       0.341
  NL_420               JUNCTION      0.00     0.77     1  07:44           0       0.363       0.569
  NL_422               JUNCTION      0.00     0.78     1  07:58           0       0.366       0.449
  NL_424               JUNCTION      0.00     0.78     0  07:49           0       0.369       0.433
  NL_426               JUNCTION      0.00     0.78     1  07:25           0       0.372       0.423
  NL_428               JUNCTION      0.00     0.78     0  07:57           0       0.376       0.541
  NL_430               JUNCTION      0.00     0.78     1  07:45           0        0.38       0.510
  NL_432               JUNCTION      0.00     0.78     1  07:57           0       0.384       0.509
  NL_434               JUNCTION      0.00     1.54     1  00:25           0        1.15       0.132
  NL_436               JUNCTION      0.00     1.54     1  00:25           0        1.16       0.135
  NL_438               JUNCTION      0.00     1.55     1  06:02           0        1.16       0.146
  NL_440               JUNCTION      0.00     1.42     0  06:22           0       0.566       0.341
  NL_442               JUNCTION      0.00     1.42     0  06:21           0        0.57       0.344
  NL_444               JUNCTION      0.00     1.43     0  06:21           0       0.574       0.404
  NL_446               JUNCTION      0.00     1.43     0  06:21           0       0.579       0.415
  NL_448               JUNCTION      0.00     0.53     0  06:05           0       0.116       1.628
  NL_450               JUNCTION      0.00     0.41     0  06:06           0       0.114       1.674
  NL_452               JUNCTION      0.00     0.34     0  06:06           0       0.114       1.720
  NL_454               JUNCTION      0.00     0.31     0  06:06           0       0.117       1.839
  NL_456               JUNCTION      0.00     0.88     1  00:41           0       0.608       0.381
[...]
  357                        28.75     28.75     28.75     20.59        17.00
  359                        28.75     28.75     28.75     23.38        18.25
  361                        28.76     28.76     28.77     28.90        26.45
  363                        28.75     28.75     28.76     28.70        25.90
  365                        28.75     28.75     28.75     29.09        26.25
  367                        28.74     28.74     28.74     28.94        25.97
  369                        28.73     28.73     28.73     26.05        21.66
  37                         28.72     28.72     28.72     28.79        24.73
  371                        28.73     28.73     28.73     26.37        21.90
  373                        28.72     28.72     28.73     26.08        22.42
  375                        28.72     28.72     28.72     25.98        23.47
  377                        29.27     29.27     29.27     23.59        21.41
  379                        29.28     29.28     29.28     22.58        21.36
  381                        29.29     29.29     29.29     22.80        21.55
  383                        29.30     29.30     29.30     23.10        21.54
  385                        29.30     29.31     29.30     23.60        21.64
  387                        29.32     29.33     29.32     20.09        18.64
  389                        29.33     29.34     29.33     19.61        18.06
  39                         28.73     28.73     28.74     29.57        26.02
  391                        29.34     29.35     29.34     19.67        17.56
  393                        29.35     29.36     29.35     20.39        17.28
  395                        29.36     29.37     29.36     20.90        17.39
  397                        29.37     29.38     29.37     25.80        18.57
  399                        29.40     29.41     29.40     11.31        10.79
  401                        29.41     29.42     29.41     11.94        10.77
  403                        29.43     29.43     29.43     11.60        10.32
  405                        29.44     29.45     29.44     14.68        10.12
  407                         0.01     29.17      0.01     30.88         0.01
  409                        29.22     29.25     29.22     31.22        29.22
  41                         28.75     28.75     28.75     20.68        16.98
  411                        29.27     29.30     29.27     31.45        29.27
  413                        29.32     29.32     29.33     32.74        27.42
  415                        29.31     29.31     29.32     33.23        27.45
  417                        29.30     29.30     29.31     34.01        28.21
  419                        29.30     29.30     29.30     34.53        28.09
  421                        29.30     29.30     29.30     34.80        27.99
  423                        29.30     29.31     29.30     35.07        27.91
  425                        29.32     29.35     29.32     35.33        28.52
  427                        29.39     29.46     29.39     35.62        28.51
  429                        29.54     29.61     29.54     35.85        28.73
  43                         28.74     28.77     28.74     32.10        28.65
  431                        29.33     29.39     29.33     29.98        29.33
  433                        29.40     29.45     29.40     30.19        29.40
  435                        29.50     29.55     29.50     30.43        29.50
  437                        29.61     29.75     29.61     30.76        29.61
  439                        29.79     29.81     29.79     31.10        29.79
  441                        29.83     29.85     29.83     31.89        29.83
  443                        29.87     29.89     29.87     32.52        29.87
  445                        29.91     29.91     29.91     25.15        20.80
  447                        29.90     29.90     29.90     24.89        21.25
  449                        29.89     29.89     29.90     24.89        21.55
  45                         28.33     28.34     28.33     29.19        27.69
  451                        29.88     29.88     29.89     25.06        23.15
  453                        29.55     29.55     29.61     29.85        29.37
  455                        29.45     29.45     29.50     29.72        29.40
  457                        29.42     29.42     29.42     29.64        29.39
  459                        29.42     29.43     29.42     31.91        29.38
  461                        29.91     30.01     29.91     32.48        29.91
  463                        30.18     30.27     30.18     32.86        30.18
  465                        30.34     30.38     30.34     33.30        30.34
  467                        30.43     30.43     30.45     28.33        21.71
  469                        30.41     30.41     30.42     28.41        22.50
  47                         29.62     29.62     29.62      4.22         3.57
  471                        30.41     30.41     30.41     26.66        23.66
  473                        30.45     30.66     30.45     33.72        28.64
  475                        30.79     30.86     30.79     34.08        29.14
  477                        30.92     30.96     30.92     34.43        28.80
  479                        31.12     31.13     31.12     20.33        16.43
  481                        31.14     31.15     31.14     22.32        16.84
  483                        31.16     31.18     31.16     24.27        15.16
  485                        31.12     31.29     31.12     17.83        14.99
  487                        31.45     31.63     31.45     18.44        15.44
  489                        31.82     31.98     31.82     18.45        15.64
  49                         29.95     29.98     29.95      9.35         2.22
  491                        32.21     32.41     32.21     18.61        16.00
  493                        32.61     33.04     32.61     18.49        15.92
  495                        33.33     34.17     33.33     21.49        16.90
  497                        34.40     34.93     34.40     21.93        17.53
  499                        35.22     35.38     35.22     21.75        16.99
  501                        29.43     29.45     29.43     33.87        29.43
  503                        29.46     29.47     29.46     34.35        29.46
  505                        29.48     29.50     29.48     31.65        27.65
  507                        29.51     29.52     29.51     31.98        27.68
  509                        29.53     29.55     29.53     31.70        28.30
  51                         29.91     29.93     29.91     12.95         5.64
  511                        29.56     29.59     29.56     32.16        28.31
  513                        29.61     29.63     29.61     32.53        27.05
  515                        29.66     29.68     29.66     33.94        26.14
  517                        29.72     29.74     29.72     34.97        24.46
  519                        29.41     29.41     29.43     31.52        27.50
  521                        29.38     29.38     29.40     31.09        27.49
  523                        29.33     29.33     29.36     30.59        27.57
  525                        29.28     29.28     29.31     30.09        27.68
  527                        29.22     29.22     29.25     29.37        27.88
  529                        29.17     29.17     29.20     29.25        27.85
  53                         29.74     29.77     29.74     34.98        24.69
  531                        29.13     29.13     29.15     29.20        27.07
  533                        29.01     29.01     29.04      5.66         5.67
  535                        28.96     28.96     28.99      5.40         5.73
  537                        28.93     28.93     28.95      4.99         5.68
  539                        28.89     28.89     28.91      5.41         5.70
  541                        28.85     28.85     28.87      5.96         5.47
  543                        28.84     28.84     28.85      5.79         5.07
  545                        28.82     28.82     28.83      7.90         4.89
  547                        28.82     28.82     28.82      9.07         4.55
  549                        29.00     29.00     29.04      5.56         5.15
  55                         29.85     29.91     29.85     35.97        28.53
  551                        28.93     28.93     28.96      5.34         5.10
  553                        28.81     28.81     28.87      4.95         4.58
  555                        28.76     28.76     28.77      4.29         3.50
  557                        28.74     28.74     28.74      3.78         3.45
  559                        28.72     28.72     28.73      2.65         3.38
  561                        28.71     28.71     28.72      0.79         2.97
  563                        28.74     28.74     28.77      3.76         3.51
  565                        28.69     28.69     28.72      3.64         3.42
  567                        28.68     28.68     28.69      3.28         3.33
  569                        28.67     28.67     28.67      2.60         3.49
  57                         28.89     28.94     28.89      1.81         2.48
  571                        28.66     28.66     28.66      3.21         3.48
  573                        28.66     28.69     28.66      3.34         3.60
  575                        28.72     28.75     28.72      2.89         3.57
  577                        28.78     28.82     28.78      2.47         3.51
  579                        28.85     28.89     28.85      1.95         3.35
  581                        29.67     29.67     29.68      5.41         3.92
  583                        29.69     29.69     29.70      6.92         4.03
  585                        29.71     29.71     29.73      9.73         4.00
  587                        29.75     29.75     29.77     10.89         3.89
  589                        29.77     29.80     29.77     11.50         5.62
  59                         28.71     28.71     28.71      1.51         2.52
  591                        29.81     29.83     29.81     10.91         5.99
  593                        29.84     29.86     29.84     11.38         6.11
  595                        29.87     29.89     29.87     12.06         5.97
  597                        29.90     29.91     29.90     12.67         5.78
  599                        29.93     29.93     29.93      3.42         1.96
  601                        29.94     29.94     29.94      3.30         2.13
  603                        29.94     29.94     29.94      7.56         2.06
  605                        29.94     29.95     29.94      8.97         2.01
  607                        29.65     29.65     29.66      4.68         3.77
  609                        29.63     29.63     29.64      4.26         3.64
  61                         28.77     28.77     28.81      4.95         4.32
  611                        29.62     29.62     29.63      4.48         3.61
  613                        29.61     29.61     29.62      9.88         2.90
  615                         0.01      0.01     28.26      0.01         0.01
  617                        27.04     28.31     27.04     28.34        26.33
  619                        28.32     28.33     28.32     28.67        27.66
  621                        28.34     28.35     28.34     24.89        14.82
  623                        28.35     28.35     28.35     23.17        13.36
  625                        28.35     28.36     28.35     23.24        13.83
  627                        28.33     28.33     28.34     26.08        18.81
  629                        28.28     28.28     28.31     26.42        19.48
  63                         28.82     28.82     28.82      4.79         3.46
  631                        28.22     28.22     28.26     26.27        19.04
  633                        28.17     28.17     28.19     25.52        19.48
  635                        28.17     28.17     28.17     24.58        17.71
  637                        24.05     27.09     24.05     24.53        17.91
  641                        28.10     28.15     28.10     27.29        23.13
  643                        28.09     28.09     28.10     20.63        14.72
  645                        28.06     28.06     28.07     20.70        13.63
  647                        28.03     28.03     28.04     22.22        13.61
  65                         29.04     29.04     29.13     29.20        27.48
  651                        27.99     27.99     28.00     21.76        13.63
  653                        27.98     27.98     27.99     18.38        13.49
  655                        27.90     27.90     27.94     10.16        12.89
  657                        28.23     28.28     28.23     27.49        22.52
  659                        28.34     28.37     28.34     28.53        22.34
  661                        28.42     28.45     28.42     28.52        22.99
  663                        28.47     28.51     28.47     30.47        24.12
  665                        28.55     28.60     28.55     31.43        25.09
  667                        28.64     28.69     28.64     32.48        25.97
  669                        28.73     28.76     28.73     32.73        26.34
  67                         29.47     29.48     29.47     34.38        29.47
  671                        28.79     28.82     28.79     33.46        25.93
  673                        28.86     28.88     28.86     33.72        25.38
  675                        28.90     28.90     28.90     27.01        20.28
  677                        28.91     28.92     28.91     27.60        20.55
  679                        28.93     28.94     28.93     29.14        21.52
  681                        28.95     28.96     28.95     30.26        23.60
  683                        28.34     28.57     28.34     29.73        28.21
  685                        28.60     28.62     28.60     30.37        28.47
  687                        28.64     28.66     28.64     30.55        28.54
  689                        28.67     28.68     28.67     30.91        28.58
  69                         29.43     29.43     29.43     32.08        29.38
  691                        28.69     28.71     28.69     31.58        28.62
  693                        28.73     28.74     28.73     32.16        28.63
  695                        28.76     28.76     28.76     28.43        25.71
  697                        28.75     28.75     28.75     28.80        25.81
  699                        28.74     28.74     28.74     29.19        26.05
  701                        28.73     28.73     28.73     25.06        20.99
  703                        28.73     28.73     28.73     26.04        21.34
  705                        28.73     28.73     28.73     26.02        21.97
  707                        28.72     28.72     28.72     25.78        22.39
  709                        28.72     28.72     28.72     28.19        24.70
  71                         35.38     35.54     35.38     21.41        16.94
  711                        28.77     28.89     28.77     28.93        28.66
  713                        28.90     28.91     28.90     29.02        28.82
  715                        28.92     28.94     28.92     29.22        28.85
  717                        28.95     28.96     28.95     29.97        28.89
  719                        28.98     29.01     28.98     31.46        28.94
  721                        29.03     29.05     29.03     31.64        28.99
  723                        29.08     29.11     29.08     32.29        29.05
  725                        29.12     29.15     29.12     32.98        29.09
  727                        29.17     29.18     29.17     32.94        29.13
  729                        29.20     29.23     29.20     33.84        29.15
  73                         31.18     31.20     31.18     24.59        16.12
  731                        29.24     29.26     29.24     34.25        29.17
  733                        29.27     29.27     29.27     23.51        20.91
  735                        29.27     29.28     29.27     23.18        21.28
  737                        29.28     29.29     29.28     22.63        21.25
  739                        29.29     29.30     29.29     23.13        21.90
  741                        29.30     29.30     29.30     23.46        21.77
  743                        29.31     29.31     29.31     24.04        21.52
  745                        29.33     29.33     29.33     19.04        17.05
  747                        29.34     29.34     29.34     19.50        17.62
  749                        29.35     29.35     29.35     19.76        17.44
  75                         30.96     31.12     30.96     34.58        29.25
  751                        29.36     29.36     29.36     20.72        17.39
  753                        29.38     29.39     29.38     22.18        16.57
  755                        29.40     29.40     29.40     12.95        10.20
  757                        29.40     29.40     29.40     12.50        11.32
  759                        29.41     29.41     29.41     12.16        10.97
  761                        29.42     29.43     29.42     11.77        10.50
  763                        29.43     29.44     29.43     14.87        10.69
  765                        29.45     29.46     29.45     16.97        10.43
  767                        29.48     29.48     29.48     34.79        28.16
  769                        29.48     29.55     29.48     35.09        28.26
  77                         30.41     30.41     30.41     27.15        24.17
  771                        29.62     29.66     29.62     35.37        26.88
  773                        29.69     29.75     29.69     35.60        28.70
  775                        29.80     29.85     29.80     35.86        27.58
  779                        28.10     28.10     28.10     25.85        22.32
  781                        28.09     28.10     28.09     25.40        22.36
  783                        22.50     24.06     22.71     22.25        16.46
  785                         0.01      0.01     27.85      0.01         0.01
  787                        29.60     29.60     29.61     27.62        22.73
  79                         29.88     29.88     29.88     26.10        22.98
  81                         30.38     30.45     30.38     33.57        30.38
  83                         29.61     29.71     29.61     35.96        28.76
  85                         29.89     29.91     29.89     32.78        29.89
  87                         29.55     29.61     29.55     30.58        29.55
  91                         29.30     29.33     29.30     31.52        29.30
  93                         28.72     28.72     28.72      2.14         3.29
  95                         28.73     28.73     28.74      3.91         3.52
  97                         28.74     28.74     28.76      4.50         3.54
  99                         28.82     28.85     28.82      1.96         3.25
  
  
  ***************
  Pumping Summary
  ***************
  
  ---------------------------------------------------------------------------------------------------------
                                                  Min       Avg       Max     Total     Power    % Time Off
                        Percent   Number of      Flow      Flow      Flow    Volume     Usage    Pump Curve
  Pump                 Utilized   Start-Ups       CFS       CFS       CFS  10^6 gal     Kw-hr    Low   High
  ---------------------------------------------------------------------------------------------------------
  5006                     9.76         281      0.00      6.04     20.00     0.458    497.67    0.0    0.1
  5008                    28.00         706      0.00      6.03     20.00     1.531   1716.51    0.0    0.0
  

  Analysis begun on:  Wed Jan 02 04:44:18 2019
  Analysis ended on:  Wed Jan 02 04:44:24 2019
  Total elapsed time: 00:00:06