
  EPA STORM WATER MANAGEMENT MODEL - VERSION 5.1 (Build 5.1.012)
  --------------------------------------------------------------

    Input and Output FilesSW 1 0 20 
  
  WARNING 04: minimum elevation drop used for Conduit pipe1b
  WARNING 04: minimum elevation drop used for Conduit pipe2b
  WARNING 04: minimum elevation drop used for Conduit pipe3b
  WARNING 04: minimum elevation drop used for Conduit pipe4b
  WARNING 04: minimum elevation drop used for Conduit pipe5b
  WARNING 04: minimum elevation drop used for Conduit pipe6b
  WARNING 04: minimum elevation drop used for Conduit pipe7b
  WARNING 04: minimum elevation drop used for Conduit pipe8b
  WARNING 04: minimum elevation drop used for Conduit pipe9b
  WARNING 04: minimum elevation drop used for Conduit outletb
  
  *************
  Element Count
  *************
  Number of rain gages ...... 0
  Number of subcatchments ... 0
  Number of nodes ........... 33
  Number of links ........... 30
  Number of pollutants ...... 0
  Number of land uses ....... 0
  
  
  ************
  Node Summary
  ************
                                           Invert      Max.    Ponded    External
  Name                 Type                 Elev.     Depth      Area    Inflow  
  -------------------------------------------------------------------------------
  Inflow               JUNCTION             10.00     10.00       0.0    Yes
  Inflowa              JUNCTION             10.00     10.00       0.0    Yes
  Inflowb              JUNCTION             10.00     10.00       0.0    Yes
  mid1                 JUNCTION             10.00     10.00       0.0
  mid1a                JUNCTION             10.00     10.00       0.0
  mid1b                JUNCTION             10.00     10.00       0.0
  mid2                 JUNCTION             10.00     10.00       0.0
  mid2a                JUNCTION             10.00     10.00       0.0
  mid2b                JUNCTION             10.00     10.00       0.0
  mid3                 JUNCTION             10.00     10.00       0.0
  mid3a                JUNCTION             10.00     10.00       0.0
  mid3b                JUNCTION             10.00     10.00       0.0
  mid4                 JUNCTION             10.00     10.00       0.0
  mid4a                JUNCTION             10.00     10.00       0.0
  mid4b                JUNCTION             10.00     10.00       0.0
  mid5                 JUNCTION             10.00     10.00       0.0
  mid5a                JUNCTION             10.00     10.00       0.0
  mid5b                JUNCTION             10.00     10.00       0.0
  mid6                 JUNCTION             10.00     10.00       0.0
  mid6a                JUNCTION             10.00     10.00       0.0
  mid6b                JUNCTION             10.00     10.00       0.0
  mid7                 JUNCTION             10.00     10.00       0.0
  mid7a                JUNCTION             10.00     10.00       0.0
  mid7b                JUNCTION             10.00     10.00       0.0
  mid8                 JUNCTION             10.00     10.00       0.0
  mid8a                JUNCTION             10.00     10.00       0.0
  mid8b                JUNCTION             10.00     10.00       0.0
  mid9                 JUNCTION             10.00     10.00       0.0
  mid9a                JUNCTION             10.00     10.00       0.0
  mid9b                JUNCTION             10.00     10.00       0.0
  Outlet               OUTFALL              10.00      5.00       0.0
  Outleta              OUTFALL              10.00      2.00       0.0
  Outletb              OUTFALL              10.00      2.00       0.0
  
  
  ************
  Link Summary
  ************
  Name             From Node        To Node          Type            Length    %Slope Roughness
  ---------------------------------------------------------------------------------------------
  pipe1            Inflow           mid1             CONDUIT          100.0   -3.0014    0.0110
  pipe2            mid1             mid2             CONDUIT          100.0   -3.0014    0.0110
  pipe3            mid2             mid3             CONDUIT          100.0   -3.0014    0.0110
  pipe4            mid3             mid4             CONDUIT          100.0   -3.0014    0.0110
  pipe5            mid4             mid5             CONDUIT          100.0   -3.0014    0.0110
  pipe6            mid5             mid6             CONDUIT          100.0   -3.0014    0.0110
  pipe7            mid6             mid7             CONDUIT          100.0   -3.0014    0.0110
  pipe8            mid7             mid8             CONDUIT          100.0   -3.0014    0.0110
  pipe9            mid8             mid9             CONDUIT          100.0   -3.0014    0.0110
  outlet           mid9             Outlet           CONDUIT          100.0   -3.0014    0.0110
  pipe1a           Inflowa          mid1a            CONDUIT          100.0    3.0014    0.0110
  pipe2a           mid1a            mid2a            CONDUIT          100.0    3.0014    0.0110
  pipe3a           mid2a            mid3a            CONDUIT          100.0    3.0014    0.0110
  pipe4a           mid3a            mid4a            CONDUIT          100.0    3.0014    0.0110
  pipe5a           mid4a            mid5a            CONDUIT          100.0    3.0014    0.0110
  pipe6a           mid5a            mid6a            CONDUIT          100.0    3.0014    0.0110
  pipe7a           mid6a            mid7a            CONDUIT          100.0    3.0014    0.0110
  pipe8a           mid7a            mid8a            CONDUIT          100.0    3.0014    0.0110
  pipe9a           mid8a            mid9a            CONDUIT          100.0    3.0014    0.0110
  outleta          mid9a            Outleta          CONDUIT          100.0    3.0014    0.0110
  pipe1b           Inflowb          mid1b            CONDUIT          100.0    0.0010    0.0110
  pipe2b           mid1b            mid2b            CONDUIT          100.0    0.0010    0.0110
  pipe3b           mid2b            mid3b            CONDUIT          100.0    0.0010    0.0110
  pipe4b           mid3b            mid4b            CONDUIT          100.0    0.0010    0.0110
  pipe5b           mid4b            mid5b            CONDUIT          100.0    0.0010    0.0110
  pipe6b           mid5b            mid6b            CONDUIT          100.0    0.0010    0.0110
  pipe7b           mid6b            mid7b            CONDUIT          100.0    0.0010    0.0110
  pipe8b           mid7b            mid8b            CONDUIT          100.0    0.0010    0.0110
  pipe9b           mid8b            mid9b            CONDUIT          100.0    0.0010    0.0110
  outletb          mid9b            Outletb          CONDUIT          100.0    0.0010    0.0110
  
  
  *********************
  Cross Section Summary
  *********************
                                        Full     Full     Hyd.     Max.   No. of     Full
  Conduit          Shape               Depth     Area     Rad.    Width  Barrels     Flow
  ---------------------------------------------------------------------------------------
  pipe1            CIRCULAR             2.00     3.14     0.50     2.00        1    46.32
  pipe2            CIRCULAR             2.00     3.14     0.50     2.00        1    46.32
  pipe3            CIRCULAR             2.00     3.14     0.50     2.00        1    46.32
  pipe4            CIRCULAR             2.00     3.14     0.50     2.00        1    46.32
  pipe5            CIRCULAR             2.00     3.14     0.50     2.00        1    46.32
  pipe6            CIRCULAR             2.00     3.14     0.50     2.00        1    46.32
  pipe7            CIRCULAR             2.00     3.14     0.50     2.00        1    46.32
  pipe8            CIRCULAR             2.00     3.14     0.50     2.00        1    46.32
  pipe9            CIRCULAR             2.00     3.14     0.50     2.00        1    46.32
  outlet           CIRCULAR             2.00     3.14     0.50     2.00        1    46.32
  pipe1a           CIRCULAR             2.00     3.14     0.50     2.00        1    46.32
  pipe2a           CIRCULAR             2.00     3.14     0.50     2.00        1    46.32
  pipe3a           CIRCULAR             2.00     3.14     0.50     2.00        1    46.32
  pipe4a           CIRCULAR             2.00     3.14     0.50     2.00        1    46.32
  pipe5a           CIRCULAR             2.00     3.14     0.50     2.00        1    46.32
  pipe6a           CIRCULAR             2.00     3.14     0.50     2.00        1    46.32
  pipe7a           CIRCULAR             2.00     3.14     0.50     2.00        1    46.32
  pipe8a           CIRCULAR             2.00     3.14     0.50     2.00        1    46.32
  pipe9a           CIRCULAR             2.00     3.14     0.50     2.00        1    46.32
  outleta          CIRCULAR             2.00     3.14     0.50     2.00        1    46.32
  pipe1b           CIRCULAR             2.00     3.14     0.50     2.00        1     0.85
  pipe2b           CIRCULAR             2.00     3.14     0.50     2.00        1     0.85
  pipe3b           CIRCULAR             2.00     3.14     0.50     2.00        1     0.85
  pipe4b           CIRCULAR             2.00     3.14     0.50     2.00        1     0.85
  pipe5b           CIRCULAR             2.00     3.14     0.50     2.00        1     0.85
  pipe6b           CIRCULAR             2.00     3.14     0.50     2.00        1     0.85
  pipe7b           CIRCULAR             2.00     3.14     0.50     2.00        1     0.85
  pipe8b           CIRCULAR             2.00     3.14     0.50     2.00        1     0.85
  pipe9b           CIRCULAR             2.00     3.14     0.50     2.00        1     0.85
  outletb          CIRCULAR             2.00     3.14     0.50     2.00        1     0.85
  
  
  
  *********************************************************
  NOTE: The summary statistics displayed in this report are
  based on results found at every computational time step,  
  not just on results from each reporting time step.
  *********************************************************
  
  ****************
  Analysis Options
  ****************
  Flow Units ............... CFS
  Process Models:
    Rainfall/Runoff ........ NO
    RDII ................... NO
    Snowmelt ............... NO
    Groundwater ............ NO
    Flow Routing ........... YES
    Ponding Allowed ........ NO
    Water Quality .......... NO
  Flow Routing Method ...... DYNWAVE
  Starting Date ............ 02/22/2002 00:00:00
  Ending Date .............. 02/22/2002 10:00:00
  Antecedent Dry Days ...... 0.0
  Report Time Step ......... 00:00:01
  Routing Time Step ........ 0.10 sec
  Variable Time Step ....... YES
  Maximum Trials ........... 8
  Number of Threads ........ 1
  Head Tolerance ........... 0.001000 ft
  
  
  **************************        Volume        Volume
  Flow Routing Continuity        acre-feet      10^6 gal
  **************************     ---------     ---------
  Dry Weather Inflow .......         0.000         0.000
  Wet Weather Inflow .......         0.000         0.000
  Groundwater Inflow .......         0.000         0.000
  RDII Inflow ..............         0.000         0.000
  External Inflow ..........         0.420         0.137
  External Outflow .........         0.315         0.103
  Flooding Loss ............         0.004         0.001
  Evaporation Loss .........         0.000         0.000
  Exfiltration Loss ........         0.000         0.000
  Initial Stored Volume ....         0.000         0.000
  Final Stored Volume ......         0.092         0.030
  Continuity Error (%) .....         2.208
  
  
  *************************
  Highest Continuity Errors
  *************************
  Node mid1 (7.99%)
  Node mid2 (7.35%)
  Node mid8 (-6.92%)
  Node mid9a (6.86%)
  Node mid8a (6.18%)
  
  
  ***************************
  Time-Step Critical Elements
  ***************************
  None
  
  
  ********************************
  Highest Flow Instability Indexes
  ********************************
  Link outleta (1)
  
  
  *************************
  Routing Time Step Summary
  *************************
  Minimum Time Step           :     0.10 sec
  Average Time Step           :     0.10 sec
  Maximum Time Step           :     0.10 sec
  Percent in Steady State     :     0.00
  Average Iterations per Step :     6.35
  Percent Not Converging      :    71.85
  
  
  ******************
  Node Depth Summary
  ******************
  
  ---------------------------------------------------------------------------------
                                 Average  Maximum  Maximum  Time of Max    Reported
                                   Depth    Depth      HGL   Occurrence   Max Depth
  Node                 Type         Feet     Feet     Feet  days hr:min        Feet
  ---------------------------------------------------------------------------------
  Inflow               JUNCTION     3.07    10.00    20.00     0  00:06       10.00
  Inflowa              JUNCTION     3.04     3.61    13.61     0  00:37        3.61
  Inflowb              JUNCTION     0.39     1.46    11.46     0  08:37        1.46
  mid1                 JUNCTION     2.97     4.08    14.08     0  05:37        4.08
  mid1a                JUNCTION     3.04     3.75    13.75     0  06:37        3.75
  mid1b                JUNCTION     0.38     1.16    11.16     0  08:37        1.15
  mid2                 JUNCTION     2.85     3.73    13.73     0  05:37        3.73
  mid2a                JUNCTION     2.89     3.76    13.76     0  06:37        3.76
  mid2b                JUNCTION     0.36     0.82    10.82     0  08:37        0.82
  mid3                 JUNCTION     2.73     3.56    13.56     0  08:37        3.56
  mid3a                JUNCTION     2.76     3.71    13.71     0  06:37        3.71
  mid3b                JUNCTION     0.35     0.66    10.66     0  03:38        0.65
  mid4                 JUNCTION     2.59     3.46    13.46     0  04:37        3.46
  mid4a                JUNCTION     2.62     3.65    13.65     0  06:37        3.65
  mid4b                JUNCTION     0.33     0.56    10.56     0  03:08        0.56
  mid5                 JUNCTION     2.45     3.39    13.39     0  09:08        3.39
  mid5a                JUNCTION     2.48     3.59    13.59     0  06:37        3.59
  mid5b                JUNCTION     0.32     0.50    10.50     0  09:39        0.50
  mid6                 JUNCTION     2.33     3.33    13.33     0  09:08        3.33
  mid6a                JUNCTION     2.34     3.54    13.54     0  06:38        3.54
  mid6b                JUNCTION     0.31     0.46    10.46     0  09:40        0.46
  mid7                 JUNCTION     2.20     3.29    13.29     0  09:09        3.29
  mid7a                JUNCTION     2.21     3.48    13.48     0  06:38        3.48
  mid7b                JUNCTION     0.29     0.42    10.42     0  09:41        0.42
  mid8                 JUNCTION     2.08     3.26    13.26     0  09:09        3.26
  mid8a                JUNCTION     2.07     3.44    13.44     0  06:38        3.44
  mid8b                JUNCTION     0.27     0.38    10.38     0  09:42        0.38
  mid9                 JUNCTION     1.95     3.23    13.23     0  06:39        3.23
  mid9a                JUNCTION     1.94     3.35    13.35     0  06:38        3.35
  mid9b                JUNCTION     0.25     0.34    10.34     0  09:43        0.34
  Outlet               OUTFALL      0.00     0.00    10.00     0  00:00        0.00
  Outleta              OUTFALL      0.04     0.35    10.35     0  06:38        0.35
  Outletb              OUTFALL      0.13     0.20    10.20     0  09:43        0.20
  
  
  *******************
  Node Inflow Summary
  *******************
  
  -------------------------------------------------------------------------------------------------
                                  Maximum  Maximum                  Lateral       Total        Flow
                                  Lateral    Total  Time of Max      Inflow      Inflow     Balance
                                   Inflow   Inflow   Occurrence      Volume      Volume       Error
  Node                 Type           CFS      CFS  days hr:min    10^6 gal    10^6 gal     Percent
  -------------------------------------------------------------------------------------------------
  Inflow               JUNCTION      9.98     9.98     0  01:07      0.0456      0.0496       2.929
  Inflowa              JUNCTION      9.98     9.98     0  01:07      0.0456      0.0499       0.449
  Inflowb              JUNCTION      9.98     9.98     0  01:07      0.0456      0.0456      -0.685
  mid1                 JUNCTION      0.00     9.98     0  08:07           0      0.0511       8.682
  mid1a                JUNCTION      0.00     9.47     0  00:37           0      0.0525       3.747
  mid1b                JUNCTION      0.00     9.29     0  01:07           0       0.046       0.536
  mid2                 JUNCTION      0.00     6.26     0  06:07           0      0.0463       7.929
  mid2a                JUNCTION      0.00    10.07     0  01:07           0      0.0483       3.961
  mid2b                JUNCTION      0.00     4.42     0  08:37           0      0.0457       0.860
  mid3                 JUNCTION      0.00     4.26     0  08:37           0       0.041       6.239
  mid3a                JUNCTION      0.00     9.18     0  01:37           0      0.0446       4.306
  mid3b                JUNCTION      0.00     2.35     0  03:37           0      0.0453       0.715
  mid4                 JUNCTION      0.00     3.21     0  08:37           0      0.0368       5.299
  mid4a                JUNCTION      0.00     8.29     0  02:07           0      0.0413       4.760
  mid4b                JUNCTION      0.00     1.54     0  03:38           0       0.045       0.607
  mid5                 JUNCTION      0.00     2.53     0  06:08           0      0.0335       5.049
  mid5a                JUNCTION      0.00     7.44     0  06:37           0      0.0386       5.190
  mid5b                JUNCTION      0.00     1.10     0  09:39           0      0.0447       0.560
  mid6                 JUNCTION      0.00     2.05     0  09:08           0      0.0306       2.671
  mid6a                JUNCTION      0.00     6.65     0  06:37           0      0.0363       5.635
  mid6b                JUNCTION      0.00     0.87     0  09:39           0      0.0445       0.527
  mid7                 JUNCTION      0.00     1.69     0  09:08           0      0.0293      -0.532
  mid7a                JUNCTION      0.00     5.84     0  06:38           0      0.0342       6.097
  mid7b                JUNCTION      0.00     0.69     0  09:40           0      0.0442       0.496
  mid8                 JUNCTION      0.00     1.39     0  09:09           0      0.0291      -6.472
  mid8a                JUNCTION      0.00     5.04     0  06:38           0      0.0321       6.590
  mid8b                JUNCTION      0.00     0.55     0  09:41           0       0.044       0.459
  mid9                 JUNCTION      0.00     1.15     0  09:09           0      0.0309       0.180
  mid9a                JUNCTION      0.00     4.32     0  06:38           0      0.0302       7.371
  mid9b                JUNCTION      0.00     0.44     0  09:42           0      0.0438       0.465
  Outlet               OUTFALL       0.00     0.95     0  04:39           0      0.0309       0.000
  Outleta              OUTFALL       0.00     3.13     0  06:38           0      0.0281       0.000
  Outletb              OUTFALL       0.00     0.34     0  09:43           0      0.0436       0.000
  
  
  **********************
  Node Surcharge Summary
  **********************
  
  Surcharging occurs when water rises above the top of the highest conduit.
  ---------------------------------------------------------------------
                                               Max. Height   Min. Depth
                                   Hours       Above Crown    Below Rim
  Node                 Type      Surcharged           Feet         Feet
  ---------------------------------------------------------------------
  Inflow               JUNCTION        9.84          8.000        0.000
  
  
  *********************
  Node Flooding Summary
  *********************
  
  Flooding refers to all water that overflows a node, whether it ponds or not.
  --------------------------------------------------------------------------
                                                             Total   Maximum
                                 Maximum   Time of Max       Flood    Ponded
                        Hours       Rate    Occurrence      Volume     Depth
  Node                 Flooded       CFS   days hr:min    10^6 gal      Feet
  --------------------------------------------------------------------------
  Inflow                  0.01      9.20      0  00:06       0.001     0.000
  
  
  ***********************
  Outfall Loading Summary
  ***********************
  
  -----------------------------------------------------------
                         Flow       Avg       Max       Total
                         Freq      Flow      Flow      Volume
  Outfall Node           Pcnt       CFS       CFS    10^6 gal
  -----------------------------------------------------------
  Outlet                62.04      0.18      0.95       0.031
  Outleta               61.04      0.17      3.13       0.028
  Outletb               97.73      0.17      0.34       0.044
  -----------------------------------------------------------
  System                73.61      0.52      3.27       0.103
  
  
  ********************
  Link Flow Summary
  ********************
  
  -----------------------------------------------------------------------------
                                 Maximum  Time of Max   Maximum    Max/    Max/
                                  |Flow|   Occurrence   |Veloc|    Full    Full
  Link                 Type          CFS  days hr:min    ft/sec    Flow   Depth
  -----------------------------------------------------------------------------
  pipe1                CONDUIT      9.98     0  08:07      4.53    0.22    0.77
  pipe2                CONDUIT      6.26     0  06:07      2.88    0.14    0.68
  pipe3                CONDUIT      4.26     0  08:37      2.07    0.09    0.64
  pipe4                CONDUIT      3.21     0  08:37      1.63    0.07    0.61
  pipe5                CONDUIT      2.53     0  06:08      1.32    0.05    0.60
  pipe6                CONDUIT      2.05     0  09:08      1.09    0.04    0.58
  pipe7                CONDUIT      1.69     0  09:08      0.92    0.04    0.57
  pipe8                CONDUIT      1.39     0  09:09      0.77    0.03    0.56
  pipe9                CONDUIT      1.15     0  09:09      0.64    0.02    0.56
  outlet               CONDUIT      0.95     0  04:39      0.54    0.02    0.55
  pipe1a               CONDUIT      9.47     0  00:37      9.95    0.20    0.65
  pipe2a               CONDUIT     10.07     0  01:07      8.59    0.22    0.69
  pipe3a               CONDUIT      9.18     0  01:37      5.26    0.20    0.69
  pipe4a               CONDUIT      8.29     0  02:07      6.15    0.18    0.68
  pipe5a               CONDUIT      7.44     0  06:37      6.91    0.16    0.66
  pipe6a               CONDUIT      6.65     0  06:37      7.49    0.14    0.65
  pipe7a               CONDUIT      5.84     0  06:38      7.97    0.13    0.63
  pipe8a               CONDUIT      5.04     0  06:38      8.31    0.11    0.62
  pipe9a               CONDUIT      4.32     0  06:38      8.48    0.09    0.61
  outleta              CONDUIT      3.13     0  06:38      8.41    0.07    0.18
  pipe1b               CONDUIT      9.29     0  01:07      4.87   10.98    0.63
  pipe2b               CONDUIT      4.42     0  08:37      4.49    5.23    0.41
  pipe3b               CONDUIT      2.35     0  03:37      3.53    2.78    0.33
  pipe4b               CONDUIT      1.54     0  03:38      2.86    1.83    0.28
  pipe5b               CONDUIT      1.10     0  09:39      2.48    1.30    0.25
  pipe6b               CONDUIT      0.87     0  09:39      2.09    1.03    0.23
  pipe7b               CONDUIT      0.69     0  09:40      1.69    0.81    0.21
  pipe8b               CONDUIT      0.55     0  09:41      1.33    0.65    0.19
  pipe9b               CONDUIT      0.44     0  09:42      1.24    0.52    0.18
  outletb              CONDUIT      0.34     0  09:43      1.36    0.40    0.13
  
  
  ***************************
  Flow Classification Summary
  ***************************
  
  -------------------------------------------------------------------------------------
                      Adjusted    ---------- Fraction of Time in Flow Class ---------- 
                       /Actual         Up    Down  Sub   Sup   Up    Down  Norm  Inlet 
  Conduit               Length    Dry  Dry   Dry   Crit  Crit  Crit  Crit  Ltd   Ctrl  
  -------------------------------------------------------------------------------------
  pipe1                   1.00   0.01  0.05  0.00  0.92  0.00  0.02  0.00  0.00  0.00
  pipe2                   1.00   0.01  0.05  0.00  0.86  0.00  0.08  0.00  0.00  0.00
  pipe3                   1.00   0.06  0.05  0.00  0.80  0.00  0.08  0.00  0.00  0.00
  pipe4                   1.00   0.11  0.05  0.00  0.77  0.00  0.06  0.00  0.00  0.00
  pipe5                   1.00   0.16  0.01  0.00  0.72  0.00  0.11  0.00  0.00  0.00
  pipe6                   1.00   0.17  0.05  0.00  0.66  0.00  0.12  0.00  0.00  0.00
  pipe7                   1.00   0.22  0.05  0.00  0.59  0.00  0.15  0.00  0.00  0.00
  pipe8                   1.00   0.27  0.05  0.00  0.50  0.00  0.19  0.00  0.00  0.00
  pipe9                   1.00   0.31  0.03  0.00  0.39  0.00  0.26  0.00  0.00  0.00
  outlet                  1.00   0.35  0.03  0.00  0.00  0.00  0.62  0.00  0.00  0.00
  pipe1a                  1.00   0.01  0.00  0.00  0.99  0.00  0.00  0.00  0.02  0.00
  pipe2a                  1.00   0.01  0.00  0.00  0.98  0.01  0.00  0.00  0.09  0.00
  pipe3a                  1.00   0.06  0.00  0.00  0.94  0.00  0.00  0.00  0.12  0.00
  pipe4a                  1.00   0.11  0.00  0.00  0.89  0.00  0.00  0.00  0.13  0.00
  pipe5a                  1.00   0.16  0.00  0.00  0.84  0.00  0.00  0.00  0.14  0.00
  pipe6a                  1.00   0.21  0.00  0.00  0.79  0.00  0.00  0.00  0.15  0.00
  pipe7a                  1.00   0.26  0.00  0.00  0.74  0.00  0.00  0.00  0.15  0.00
  pipe8a                  1.00   0.31  0.00  0.00  0.69  0.00  0.00  0.00  0.16  0.00
  pipe9a                  1.00   0.36  0.00  0.00  0.64  0.00  0.00  0.00  0.17  0.00
  outleta                 1.00   0.39  0.00  0.00  0.00  0.61  0.00  0.00  0.14  0.00
  pipe1b                  1.00   0.01  0.00  0.00  0.99  0.00  0.00  0.00  0.00  0.00
  pipe2b                  1.00   0.01  0.00  0.00  0.99  0.00  0.00  0.00  0.00  0.00
  pipe3b                  1.00   0.01  0.00  0.00  0.99  0.00  0.00  0.00  0.00  0.00
  pipe4b                  1.00   0.01  0.00  0.00  0.99  0.00  0.00  0.00  0.00  0.00
  pipe5b                  1.00   0.01  0.00  0.00  0.99  0.00  0.00  0.00  0.00  0.00
  pipe6b                  1.00   0.01  0.00  0.00  0.99  0.00  0.00  0.00  0.00  0.00
  pipe7b                  1.00   0.01  0.00  0.00  0.99  0.00  0.00  0.00  0.00  0.00
  pipe8b                  1.00   0.02  0.00  0.00  0.98  0.00  0.00  0.00  0.00  0.00
  pipe9b                  1.00   0.02  0.00  0.00  0.98  0.00  0.00  0.00  0.00  0.00
  outletb                 1.00   0.02  0.00  0.00  0.98  0.00  0.00  0.00  0.00  0.00
  
  
  *************************
  Conduit Surcharge Summary
  *************************
  
  ----------------------------------------------------------------------------
                                                           Hours        Hours 
                         --------- Hours Full --------   Above Full   Capacity
  Conduit                Both Ends  Upstream  Dnstream   Normal Flow   Limited
  ----------------------------------------------------------------------------
  pipe1                       0.01      0.01      9.83      0.01         0.01
  pipe2                       0.01      0.01      9.39      0.01         0.01
  pipe3                       0.01      0.01      8.88      0.01         0.01
  pipe4                       0.01      0.01      8.38      0.01         0.01
  pipe5                       0.01      0.01      8.30      0.01         0.01
  pipe6                       0.01      0.01      7.82      0.01         0.01
  pipe7                       0.01      0.01      7.34      0.01         0.01
  pipe8                       0.01      0.01      6.85      0.01         0.01
  pipe9                       0.01      0.01      6.54      0.01         0.01
  outlet                      0.01      0.01      6.20      0.01         0.01
  pipe1a                      0.01      0.01      9.88      0.01         0.01
  pipe2a                      0.01      0.01      9.38      0.01         0.01
  pipe3a                      0.01      0.01      8.88      0.01         0.01
  pipe4a                      0.01      0.01      8.38      0.01         0.01
  pipe5a                      0.01      0.01      7.87      0.01         0.01
  pipe6a                      0.01      0.01      7.37      0.01         0.01
  pipe7a                      0.01      0.01      7.18      0.01         0.01
  pipe8a                      0.01      0.01      6.77      0.01         0.01
  pipe9a                      0.01      0.01      6.31      0.01         0.01
  pipe1b                      0.01      0.01      0.01      0.33         0.01
  pipe2b                      0.01      0.01      0.01      0.43         0.01
  pipe3b                      0.01      0.01      0.01      0.56         0.01
  pipe4b                      0.01      0.01      0.01      0.33         0.01
  pipe5b                      0.01      0.01      0.01      0.25         0.01
  pipe6b                      0.01      0.01      0.01      0.01         0.01
  

  Analysis begun on:  Wed Jan 02 04:44:25 2019
  Analysis ended on:  Wed Jan 02 04:44:59 2019
  Total elapsed time: 00:00:34