
  EPA STORM WATER MANAGEMENT MODEL - VERSION 5.1 (Build 5.1.012)
  --------------------------------------------------------------

    University Storm Drainage Evaluation 
    Project No: VOF02-11 
    October 2003 
  
  WARNING 02: maximum depth increased for Node J39
  
  *********************************************************
  NOTE: The summary statistics displayed in this report are
  based on results found at every computational time step,  
  not just on results from each reporting time step.
  *********************************************************
  
  ****************
  Analysis Options
  ****************
  Flow Units ............... CFS
  Process Models:
    Rainfall/Runoff ........ YES
    RDII ................... NO
    Snowmelt ............... NO
    Groundwater ............ NO
    Flow Routing ........... YES
    Ponding Allowed ........ NO
    Water Quality .......... NO
  Infiltration Method ...... HORTON
  Flow Routing Method ...... KINWAVE
  Starting Date ............ 09/23/2003 00:00:00
  Ending Date .............. 09/24/2003 00:00:00
  Antecedent Dry Days ...... 0.0
  Report Time Step ......... 00:01:00
  Wet Time Step ............ 00:00:20
  Dry Time Step ............ 00:01:00
  Routing Time Step ........ 10.00 sec
  
  
  **************************        Volume         Depth
  Runoff Quantity Continuity     acre-feet        inches
  **************************     ---------       -------
  Total Precipitation ......        40.915         3.589
  Evaporation Loss .........         0.000         0.000
  Infiltration Loss ........        32.516         2.852
  Surface Runoff ...........         8.293         0.727
  Final Storage ............         0.106         0.009
  Continuity Error (%) .....        -0.002
  
  
  **************************        Volume        Volume
  Flow Routing Continuity        acre-feet      10^6 gal
  **************************     ---------     ---------
  Dry Weather Inflow .......         0.000         0.000
  Wet Weather Inflow .......         8.292         2.702
  Groundwater Inflow .......         0.000         0.000
  RDII Inflow ..............         0.000         0.000
  External Inflow ..........         0.000         0.000
  External Outflow .........         7.822         2.549
  Flooding Loss ............         0.381         0.124
  Evaporation Loss .........         0.000         0.000
  Exfiltration Loss ........         0.000         0.000
  Initial Stored Volume ....         0.000         0.000
  Final Stored Volume ......         0.039         0.013
  Continuity Error (%) .....         0.604
  
  
  ********************************
  Highest Flow Instability Indexes
  ********************************
  All links are stable.
  
  
  *************************
  Routing Time Step Summary
  *************************
  Minimum Time Step           :    10.00 sec
  Average Time Step           :    10.00 sec
  Maximum Time Step           :    10.00 sec
  Percent in Steady State     :     0.00
  Average Iterations per Step :     1.05
  Percent Not Converging      :     0.00
  
  
  ***************************
  Subcatchment Runoff Summary
  ***************************
  
  --------------------------------------------------------------------------------------------------------
                            Total      Total      Total      Total      Total       Total     Peak  Runoff
                           Precip      Runon       Evap      Infil     Runoff      Runoff   Runoff   Coeff
  Subcatchment                 in         in         in         in         in    10^6 gal      CFS
  --------------------------------------------------------------------------------------------------------
  A1                         3.59       0.00       0.00       2.52       1.06        0.08     3.76   0.296
  A2                         3.59       0.00       0.00       3.36       0.23        0.02     1.13   0.063
  A3                         3.59       0.00       0.00       0.94       2.63        0.08     3.61   0.732
  A4                         3.59       0.00       0.00       1.27       2.30        0.09     3.97   0.642
  A5                         3.59       0.00       0.00       3.59       0.00        0.00     0.00   0.000
  A6                         3.59       0.00       0.00       3.32       0.27        0.07     3.29   0.074
  A7                         3.59       0.00       0.00       0.80       2.76        0.10     4.70   0.769
  A8                         3.59       0.00       0.00       2.76       0.82        0.02     1.01   0.229
  A9                         3.59       0.00       0.00       1.81       1.75        0.12     5.35   0.489
  A10                        3.59       0.00       0.00       3.48       0.08        0.00     0.65   0.023
  A11                        3.59       0.00       0.00       3.56       0.01        0.00     0.18   0.002
  A12                        3.59       0.00       0.00       3.59       0.00        0.00     0.00   0.000
  A13                        3.59       0.00       0.00       2.22       1.35        0.11     5.01   0.377
  A14                        3.59       0.00       0.00       3.59       0.00        0.00     0.00   0.000
  A15                        3.59       0.00       0.00       3.59       0.00        0.00     0.00   0.000
  A16                        3.59       0.00       0.00       3.59       0.00        0.00     0.00   0.000
  A17                        3.59       0.00       0.00       3.59       0.00        0.00     0.00   0.000
  A18                        3.59       0.00       0.00       0.78       2.76        0.11     4.92   0.769
  A19                        3.59       0.00       0.00       1.53       2.04        0.08     3.67   0.569
  A20                        3.59       0.00       0.00       3.59       0.00        0.00     0.00   0.000
  A21                        3.59       0.00       0.00       3.58       0.00        0.00     0.00   0.000
  A22                        3.59       0.00       0.00       3.59       0.00        0.00     0.00   0.000
  A23                        3.59       0.00       0.00       1.57       1.98        0.12     5.57   0.553
  A24                        3.59       0.00       0.00       3.59       0.00        0.00     0.00   0.000
  A25                        3.59       0.00       0.00       3.59       0.00        0.00     0.00   0.000
  A26                        3.59       0.00       0.00       3.59       0.00        0.00     0.00   0.000
  A27                        3.59       0.00       0.00       2.48       1.10        0.16     7.20   0.307
  A28                        3.59       0.00       0.00       0.37       3.20        0.01     0.48   0.890
  A29                        3.59       0.00       0.00       1.06       2.51        0.12     5.51   0.699
  A30                        3.59       0.00       0.00       1.43       2.14        0.06     2.99   0.595
  A31                        3.59       0.00       0.00       3.59       0.00        0.00     0.00   0.000
  A32                        3.59       0.00       0.00       0.95       2.61        0.05     2.45   0.727
  A33                        3.59       0.00       0.00       1.97       1.60        0.20     9.35   0.445
  A34                        3.59       0.00       0.00       1.18       2.38        0.12     5.47   0.662
  A35                        3.59       0.00       0.00       3.58       0.00        0.00     0.00   0.000
  A36                        3.59       0.00       0.00       2.69       0.89        0.25    11.41   0.248
  A37                        3.59       0.00       0.00       3.58       0.00        0.00     0.00   0.000
  A38                        3.59       0.00       0.00       1.90       1.68        0.09     4.02   0.467
  A39                        3.59       0.00       0.00       3.58       0.00        0.00     0.04   0.000
  A40                        3.59       0.00       0.00       0.18       3.37        0.08     3.84   0.939
  A41                        3.59       0.00       0.00       0.89       2.66        0.09     4.32   0.740
  A42                        3.59       0.00       0.00       2.12       1.45        0.05     2.09   0.405
  A43                        3.59       0.00       0.00       1.04       2.52        0.08     3.47   0.702
  A44                        3.59       0.00       0.00       2.56       1.02        0.18     8.19   0.285
  A45                        3.59       0.00       0.00       0.77       2.78        0.01     0.42   0.775
  A46                        3.59       0.00       0.00       1.63       1.94        0.15     6.94   0.540
  
  
  ******************
  Node Depth Summary
  ******************
  
  ---------------------------------------------------------------------------------
                                 Average  Maximum  Maximum  Time of Max    Reported
                                   Depth    Depth      HGL   Occurrence   Max Depth
  Node                 Type         Feet     Feet     Feet  days hr:min        Feet
  ---------------------------------------------------------------------------------
  J1                   JUNCTION     1.25    15.17   662.40     0  12:08       15.17
  J2                   JUNCTION     1.97     3.74   653.91     0  12:15        3.67
  J3                   JUNCTION     1.99     9.20   660.91     0  12:06        9.20
  J4                   JUNCTION     0.55     0.78   655.18     0  12:15        0.78
  J5                   JUNCTION     0.62     1.32   655.22     0  12:15        1.32
  J6                   JUNCTION     1.57     2.65   661.91     0  12:02        2.65
  J7                   JUNCTION     0.70     4.50   664.75     0  12:01        4.50
  J8                   JUNCTION     1.69     2.58   663.52     0  12:06        2.58
  J9                   JUNCTION     0.64     4.50   667.40     0  12:03        4.50
  J10                  JUNCTION     0.77     1.63   663.88     0  12:15        1.63
  J11                  JUNCTION     0.79     1.43   665.58     0  12:15        1.43
  J12                  JUNCTION     1.86     2.11   666.43     0  12:16        2.11
  J13                  JUNCTION     0.50     0.50   666.47     0  00:00        0.50
  J14                  JUNCTION     1.03     2.88   650.24     0  12:19        2.87
  J15                  JUNCTION     0.60     2.45   670.85     0  12:05        2.45
  J16                  JUNCTION     0.71     1.83   667.35     0  12:15        1.69
  J17                  JUNCTION     0.68     9.27   675.81     0  12:06        9.27
  J18                  JUNCTION     0.10     0.28   669.17     0  12:15        0.28
  J19                  JUNCTION     0.89     1.02   671.13     0  12:15        1.02
  J20                  JUNCTION     0.50     0.50   671.41     0  00:00        0.50
  J21                  JUNCTION     0.50     0.63   672.63     0  12:15        0.63
  J22                  JUNCTION     0.50     0.68   673.73     0  12:15        0.68
  J23                  JUNCTION     0.33     2.21   650.51     0  12:17        2.20
  J24                  JUNCTION     0.76     2.17   650.66     0  12:16        2.16
  J25                  JUNCTION     1.00     1.10   651.02     0  12:16        1.10
  J26                  JUNCTION     1.00     1.00   651.46     0  00:00        1.00
  J27                  JUNCTION     0.50     0.50   661.74     0  00:00        0.50
  J28                  JUNCTION     0.81     2.24   652.44     0  12:15        2.24
  J29                  JUNCTION     0.81     2.25   652.56     0  12:15        2.24
  J30                  JUNCTION     0.50     0.50   651.50     0  00:00        0.50
  J31                  JUNCTION     0.76     2.20   652.62     0  12:15        2.19
  J32                  JUNCTION     0.39     1.21   652.72     0  12:15        1.20
  J33                  JUNCTION     0.61     1.18   651.80     0  12:15        1.18
  J34                  JUNCTION     0.55     0.55   651.36     0  00:00        0.55
  J35                  JUNCTION     0.50     0.50   651.52     0  00:00        0.50
  J36                  JUNCTION     0.50     0.50   652.25     0  00:00        0.50
  J37                  JUNCTION     0.50     0.50   652.69     0  00:00        0.50
  J38                  JUNCTION     0.64     1.45   654.56     0  12:15        1.45
  J39                  JUNCTION     0.50     0.50   654.34     0  00:00        0.50
  J40                  JUNCTION     0.85     0.85   654.75     0  00:00        0.85
  J41                  JUNCTION     0.00     0.00   657.14     0  00:00        0.00
  J42                  JUNCTION     0.00     0.00   654.47     0  00:00        0.00
  J43                  JUNCTION     7.41     8.30   660.89     0  12:08        8.30
  J44                  JUNCTION     1.08     1.83   657.39     0  12:15        1.82
  J45                  JUNCTION     0.52     0.63   670.95     0  12:15        0.63
  J46                  JUNCTION     2.88     3.32   672.52     0  12:15        3.31
  J47                  JUNCTION     0.64     4.95   668.41     0  12:05        4.95
  J48                  JUNCTION     0.58     1.01   677.26     0  12:15        1.01
  J49                  JUNCTION     1.23     1.95   674.07     0  12:15        1.95
  J50                  JUNCTION     0.50     0.90   674.96     0  12:15        0.89
  J51                  JUNCTION     0.00     0.00   679.91     0  00:00        0.00
  J52                  JUNCTION     0.63     1.39   675.87     0  12:15        1.39
  J53                  JUNCTION     0.92     2.17   662.15     0  12:15        2.17
  J54                  JUNCTION     6.13     6.85   668.51     0  12:15        6.84
  J55                  JUNCTION     0.77     1.54   669.94     0  12:15        1.53
  J56                  JUNCTION     0.64     1.39   674.26     0  12:15        1.39
  J57                  JUNCTION     0.50     0.50   674.08     0  00:00        0.50
  J58                  JUNCTION     0.69     1.72   663.77     0  12:15        1.72
  J59                  JUNCTION     6.10     6.73   671.90     0  12:15        6.73
  J69                  JUNCTION     0.60     1.23   674.16     0  12:15        1.23
  J60                  JUNCTION     0.58     1.02   677.20     0  12:15        1.02
  J61                  JUNCTION     0.98     1.91   673.06     0  12:15        1.91
  J62                  JUNCTION     0.17     1.10   673.63     0  12:15        1.10
  J63                  JUNCTION     2.68     3.20   676.11     0  12:15        3.19
  J64                  JUNCTION     0.58     1.09   676.85     0  12:15        1.09
  J65                  JUNCTION     1.04     1.17   675.56     0  12:16        1.17
  J66                  JUNCTION     0.55     0.83   682.33     0  12:15        0.82
  J68                  JUNCTION     0.55     0.82   683.44     0  12:15        0.82
  J70                  JUNCTION     0.50     0.50   685.14     0  00:00        0.50
  Out                  OUTFALL      0.68     5.50   653.12     0  12:10        5.50
  
  
  *******************
  Node Inflow Summary
  *******************
  
  -------------------------------------------------------------------------------------------------
                                  Maximum  Maximum                  Lateral       Total        Flow
                                  Lateral    Total  Time of Max      Inflow      Inflow     Balance
                                   Inflow   Inflow   Occurrence      Volume      Volume       Error
  Node                 Type           CFS      CFS  days hr:min    10^6 gal    10^6 gal     Percent
  -------------------------------------------------------------------------------------------------
  J1                   JUNCTION      0.00   116.78     0  12:16           0        2.65      -0.000
  J2                   JUNCTION      0.00   103.78     0  12:16           0        2.28       0.000
  J3                   JUNCTION      3.76     9.89     0  12:15      0.0816       0.215      -0.000
  J4                   JUNCTION      1.13     1.13     0  12:15      0.0245      0.0245       0.000
  J5                   JUNCTION      5.01     5.01     0  12:15       0.109       0.109       0.000
  J6                   JUNCTION      0.00    16.66     0  12:16           0       0.394       0.000
  J7                   JUNCTION      3.61     3.61     0  12:15      0.0785      0.0785      -0.000
  J8                   JUNCTION      0.00    14.67     0  12:15           0       0.324       0.000
  J9                   JUNCTION      3.97     3.97     0  12:15      0.0863      0.0863      -0.000
  J10                  JUNCTION      0.00    11.23     0  12:15           0       0.241       0.000
  J11                  JUNCTION      0.00    11.24     0  12:15           0       0.241       0.000
  J12                  JUNCTION      1.01     6.77     0  12:15      0.0219        0.14       0.000
  J13                  JUNCTION      0.00     0.00     0  00:00           0           0       0.000 gal
  J14                  JUNCTION      3.29    14.04     0  12:19      0.0715       0.372       0.000
  J15                  JUNCTION      4.70     4.70     0  12:15       0.102       0.102       0.000
  J16                  JUNCTION      0.00     5.27     0  12:15           0       0.115       0.000
  J17                  JUNCTION      5.35     5.35     0  12:15       0.116       0.116       0.000
  J18                  JUNCTION      0.00     0.78     0  12:15           0     0.00263       0.000
  J19                  JUNCTION      0.00     0.17     0  12:15           0    0.000354       0.000
  J20                  JUNCTION      0.00     0.00     0  00:00           0           0       0.000 gal
  J21                  JUNCTION      0.18     0.18     0  12:15    0.000352    0.000352       0.000
  J22                  JUNCTION      0.65     0.65     0  12:15     0.00229     0.00229       0.000
  J23                  JUNCTION      0.00    13.77     0  12:17           0       0.303       0.000
  J24                  JUNCTION      0.00    13.84     0  12:16           0       0.305       0.000
  J25                  JUNCTION      0.00    13.84     0  12:16           0       0.306       0.000
  J26                  JUNCTION      0.00    13.83     0  12:15           0       0.307       0.000
  J27                  JUNCTION      0.00     0.00     0  00:00           0           0       0.000 gal
  J28                  JUNCTION      0.00    13.83     0  12:15           0       0.307       0.000
  J29                  JUNCTION      0.00    13.86     0  12:15           0       0.307       0.000
  J30                  JUNCTION      0.00     0.00     0  00:00           0           0       0.000 gal
  J31                  JUNCTION      4.92    13.86     0  12:15       0.107       0.308       0.000
  J32                  JUNCTION      0.00     5.70     0  12:15           0       0.122       0.000
  J33                  JUNCTION      3.67     3.67     0  12:15      0.0798      0.0798       0.000
  J34                  JUNCTION      0.00     0.00     0  00:00           0           0       0.000 gal
  J35                  JUNCTION      0.00     0.00     0  00:00           0           0       0.000 gal
  J36                  JUNCTION      0.00     0.00     0  00:00           0           0       0.000 gal
  J37                  JUNCTION      0.00     0.00     0  00:00           0           0       0.000 gal
  J38                  JUNCTION      5.57     5.57     0  12:15       0.123       0.123       0.000
  J39                  JUNCTION      0.00     0.00     0  00:00           0           0       0.000 gal
  J40                  JUNCTION      0.00     0.00     0  00:00           0           0       0.000 gal
  J41                  JUNCTION      0.00     0.00     0  00:00           0           0       0.000 gal
  J42                  JUNCTION      0.00     0.00     0  00:00           0           0       0.000 gal
  J43                  JUNCTION      7.20    76.71     0  12:15       0.157        1.68       0.000
  J44                  JUNCTION      0.00    55.43     0  12:15           0        1.19      -0.000
  J45                  JUNCTION      0.48     0.48     0  12:15      0.0104      0.0104       0.000
  J46                  JUNCTION      5.51     8.51     0  12:15        0.12       0.185       0.000
  J47                  JUNCTION      6.94     6.94     0  12:15       0.151       0.151      -0.000
  J48                  JUNCTION      2.99     2.99     0  12:15       0.065       0.065       0.000
  J49                  JUNCTION      2.45     7.91     0  12:15      0.0531       0.171       0.000
  J50                  JUNCTION      0.00     5.58     0  12:15           0       0.118       0.000
  J51                  JUNCTION      0.00     0.00     0  00:00           0           0       0.000 gal
  J52                  JUNCTION      5.47     5.47     0  12:15       0.119       0.119       0.000
  J53                  JUNCTION     11.41    47.09     0  12:15       0.248        1.02       0.000
  J54                  JUNCTION      0.00    35.69     0  12:15           0       0.773       0.000
  J55                  JUNCTION      0.00     9.51     0  12:15           0       0.203       0.000
  J56                  JUNCTION      9.35     9.35     0  12:15       0.203       0.203       0.000
  J57                  JUNCTION      0.00     0.00     0  00:00           0           0       0.000 gal
  J58                  JUNCTION      4.02    26.36     0  12:15      0.0874        0.57       0.000
  J59                  JUNCTION      0.00    22.40     0  12:15           0       0.484       0.000
  J69                  JUNCTION      3.84     3.84     0  12:15      0.0833      0.0833       0.000
  J60                  JUNCTION      4.32     4.32     0  12:15      0.0938      0.0938       0.000
  J61                  JUNCTION      0.04    14.21     0  12:15   4.81e-005       0.307       0.000
  J62                  JUNCTION      3.47    14.16     0  12:15      0.0753       0.307       0.000
  J63                  JUNCTION      0.00    10.70     0  12:15           0       0.232       0.000
  J64                  JUNCTION      2.09     2.09     0  12:15      0.0454      0.0454       0.000
  J65                  JUNCTION      8.19     8.61     0  12:15       0.178       0.187       0.000
  J66                  JUNCTION      0.00     0.44     0  12:15           0     0.00904       0.000
  J68                  JUNCTION      0.42     0.42     0  12:15     0.00907     0.00907      -0.000
  J70                  JUNCTION      0.00     0.00     0  00:00           0           0       0.000 gal
  Out                  OUTFALL       0.00    91.26     0  12:09           0        2.55       0.000
  
  
  *********************
  Node Flooding Summary
  *********************
  
  Flooding refers to all water that overflows a node, whether it ponds or not.
  --------------------------------------------------------------------------
                                                             Total   Maximum
                                 Maximum   Time of Max       Flood    Ponded
                        Hours       Rate    Occurrence      Volume    Volume
  Node                 Flooded       CFS   days hr:min    10^6 gal  1000 ft3
  --------------------------------------------------------------------------
  J1                      0.20     31.46      0  12:16       0.104     0.000
  J3                      0.16      0.57      0  12:15       0.002     0.000
  J7                      0.25      1.57      0  12:15       0.009     0.000
  J9                      0.20      0.66      0  12:15       0.003     0.000
  J15                     0.17      0.39      0  12:15       0.001     0.000
  J17                     0.15      0.48      0  12:15       0.001     0.000
  J47                     0.18      1.25      0  12:15       0.004     0.000
  
  
  ***********************
  Outfall Loading Summary
  ***********************
  
  -----------------------------------------------------------
                         Flow       Avg       Max       Total
                         Freq      Flow      Flow      Volume
  Outfall Node           Pcnt       CFS       CFS    10^6 gal
  -----------------------------------------------------------
  Out                   97.30      4.05     91.26       2.549
  -----------------------------------------------------------
  System                97.30      4.05     91.26       2.549
  
  
  ********************
  Link Flow Summary
  ********************
  
  -----------------------------------------------------------------------------
                                 Maximum  Time of Max   Maximum    Max/    Max/
                                  |Flow|   Occurrence   |Veloc|    Full    Full
  Link                 Type          CFS  days hr:min    ft/sec    Flow   Depth
  -----------------------------------------------------------------------------
  C1                   CONDUIT     91.26     0  12:09      4.21    1.07    1.00
  C2                   CONDUIT    103.70     0  12:16      7.56    0.61    0.57
  C3                   CONDUIT     10.04     0  12:16      3.74    1.08    0.93
  C4                   CONDUIT      1.13     0  12:15      5.05    0.08    0.19
  C5                   CONDUIT      5.12     0  12:15      5.43    0.59    0.55
  C6                   CONDUIT     16.60     0  12:16     12.66    0.21    0.31
  C7                   CONDUIT      2.20     0  12:17      2.09    1.08    1.00
  C8                   CONDUIT     14.62     0  12:16      6.53    0.46    0.48
  C9                   CONDUIT      3.58     0  12:06      5.15    1.08    1.00
  C10                  CONDUIT     11.22     0  12:15      7.46    0.48    0.49
  C11                  CONDUIT     11.23     0  12:15      7.15    0.51    0.51
  C12                  CONDUIT      6.75     0  12:15      5.28    0.38    0.43
  C13                  CONDUIT      0.00     0  00:00      0.00    0.00    0.00
  C14                  CONDUIT     13.96     0  12:21      1.72    0.40    0.44
  C15                  CONDUIT      4.54     0  12:15      9.43    1.05    0.94
  C16                  CONDUIT      5.16     0  12:15      5.65    0.54    0.52
  C17                  CONDUIT      5.27     0  12:15      4.93    1.08    0.94
  C18                  CONDUIT      0.76     0  12:16      3.53    0.03    0.12
  C19                  CONDUIT      0.17     0  12:16      2.44    0.01    0.06
  C20                  CONDUIT      0.00     0  00:00      0.00    0.00    0.00
  C21                  CONDUIT      0.17     0  12:15      3.49    0.01    0.08
  C22                  CONDUIT      0.64     0  12:15      6.54    0.07    0.18
  C23                  CONDUIT     13.39     0  12:19      1.77    0.39    0.43
  C24                  CONDUIT     13.77     0  12:17      2.54    0.24    0.33
  C25                  CONDUIT     13.84     0  12:16      4.34    0.11    0.22
  C26                  CONDUIT     13.84     0  12:16      5.42    0.08    0.19
  C27                  CONDUIT      0.00     0  00:00      0.00    0.00    0.00
  C28                  CONDUIT     13.83     0  12:15      5.45    0.08    0.19
  C29                  CONDUIT     13.83     0  12:15      2.38    0.25    0.34
  C30                  CONDUIT      0.00     0  00:00      0.00    0.00    0.00
  C31                  CONDUIT     13.86     0  12:15      2.38    0.25    0.34
  C32                  CONDUIT      5.56     0  12:17      3.30    0.19    0.30
  C33                  CONDUIT      3.75     0  12:15      2.72    0.07    0.17
  C34                  CONDUIT      0.00     0  00:00      0.00    0.00    0.00
  C35                  CONDUIT      0.00     0  00:00      0.00    0.00    0.00
  C36                  CONDUIT      0.00     0  00:00      0.00    0.00    0.00
  C37                  CONDUIT      0.00     0  00:00      0.00    0.00    0.00
  C38                  CONDUIT      5.70     0  12:15      4.18    0.46    0.47
  C39                  CONDUIT      0.00     0  00:00      0.00    0.00    0.00
  C40                  CONDUIT      0.00     0  00:00      0.00    0.00    0.00
  C41                  CONDUIT      0.00     0  00:00      0.00    0.00    0.00
  C42                  CONDUIT      0.00     0  00:00      0.00    0.00    0.00
  C43                  CONDUIT     77.82     0  12:16      7.26    0.85    0.70
  C44                  CONDUIT     55.29     0  12:15      9.20    0.35    0.41
  C45                  CONDUIT      0.48     0  12:15      7.89    0.04    0.13
  C46                  CONDUIT      8.51     0  12:15     14.19    0.30    0.37
  C47                  CONDUIT      6.15     0  12:16      8.69    1.08    1.00
  C48                  CONDUIT      3.05     0  12:15      6.78    0.36    0.41
  C49                  CONDUIT      7.90     0  12:15     12.55    0.08    0.19
  C50                  CONDUIT      5.56     0  12:15      4.46    0.38    0.43
  C51                  CONDUIT      0.00     0  00:00      0.00    0.00    0.00
  C52                  CONDUIT      5.58     0  12:15      4.29    0.42    0.45
  C53                  CONDUIT     47.65     0  12:15      9.18    0.30    0.37
  C54                  CONDUIT     35.69     0  12:15      8.71    0.28    0.36
  C55                  CONDUIT      9.47     0  12:15      6.48    0.25    0.34
  C56                  CONDUIT      9.51     0  12:15      7.31    0.41    0.44
  C57                  CONDUIT      0.00     0  00:00      0.00    0.00    0.00
  C58                  CONDUIT     26.36     0  12:15     11.09    0.19    0.30
  C59                  CONDUIT     22.52     0  12:15      7.93    0.26    0.35
  C60                  CONDUIT      3.87     0  12:15      6.52    0.88    0.73
  C61                  CONDUIT      4.35     0  12:15      9.30    0.36    0.41
  C62                  CONDUIT     14.21     0  12:15     23.26    0.04    0.14
  C63                  CONDUIT     14.16     0  12:15      6.09    0.29    0.37
  C64                  CONDUIT     10.70     0  12:15      5.61    0.22    0.32
  C65                  CONDUIT      2.10     0  12:15      4.48    0.66    0.59
  C66                  CONDUIT      8.61     0  12:15     10.39    0.07    0.17
  C67                  CONDUIT      0.45     0  12:16      3.38    0.01    0.05
  C69                  CONDUIT      0.44     0  12:15      2.85    0.50    0.48
  C70                  CONDUIT      0.00     0  00:00      0.00    0.00    0.00
  
  
  *************************
  Conduit Surcharge Summary
  *************************
  
  ----------------------------------------------------------------------------
                                                           Hours        Hours 
                         --------- Hours Full --------   Above Full   Capacity
  Conduit                Both Ends  Upstream  Dnstream   Normal Flow   Limited
  ----------------------------------------------------------------------------
  C1                          0.20      0.20      0.20      0.04         0.20
  C3                          0.15      0.15      0.15      0.14         0.15
  C7                          0.25      0.25      0.25      0.01         0.25
  C9                          0.20      0.20      0.20      0.04         0.20
  C15                         0.17      0.17      0.17      0.17         0.17
  C17                         0.15      0.15      0.15      0.15         0.15
  C47                         0.18      0.18      0.18      0.18         0.18
  

  Analysis begun on:  Wed Jan 02 08:26:53 2019
  Analysis ended on:  Wed Jan 02 08:26:54 2019
  Total elapsed time: 00:00:01