
  EPA STORM WATER MANAGEMENT MODEL - VERSION 5.1 (Build 5.1.012)
  --------------------------------------------------------------

  WARNING 04: minimum elevation drop used for Conduit 19000122
  WARNING 04: minimum elevation drop used for Conduit 19000152
  WARNING 02: maximum depth increased for Node 10001373
  
  *********************************************************
  NOTE: The summary statistics displayed in this report are
  based on results found at every computational time step,  
  not just on results from each reporting time step.
  *********************************************************
  
  ****************
  Analysis Options
  ****************
  Flow Units ............... LPS
  Process Models:
    Rainfall/Runoff ........ YES
    RDII ................... NO
    Snowmelt ............... NO
    Groundwater ............ NO
    Flow Routing ........... YES
    Ponding Allowed ........ NO
    Water Quality .......... NO
  Infiltration Method ...... HORTON
  Flow Routing Method ...... DYNWAVE
  Starting Date ............ 01/01/2002 00:00:00
  Ending Date .............. 01/03/2002 23:59:00
  Antecedent Dry Days ...... 5.0
  Report Time Step ......... 00:01:00
  Wet Time Step ............ 00:01:00
  Dry Time Step ............ 00:01:00
  Routing Time Step ........ 0.50 sec
  Variable Time Step ....... YES
  Maximum Trials ........... 8
  Number of Threads ........ 1
  Head Tolerance ........... 0.001500 m
  
  
  **************************        Volume         Depth
  Runoff Quantity Continuity     hectare-m            mm
  **************************     ---------       -------
  Total Precipitation ......       249.148        44.864
  Evaporation Loss .........         0.000         0.000
  Infiltration Loss ........       212.018        38.178
  Surface Runoff ...........        31.788         5.724
  Final Storage ............         5.344         0.962
  Continuity Error (%) .....        -0.000
  
  
  **************************        Volume        Volume
  Flow Routing Continuity        hectare-m      10^6 ltr
  **************************     ---------     ---------
  Dry Weather Inflow .......         5.606        56.063
  Wet Weather Inflow .......        31.787       317.877
  Groundwater Inflow .......         0.000         0.000
  RDII Inflow ..............         0.000         0.000
  External Inflow ..........         0.000         0.000
  External Outflow .........        24.654       246.539
  Flooding Loss ............        12.646       126.461
  Evaporation Loss .........         0.000         0.000
  Exfiltration Loss ........         0.000         0.000
  Initial Stored Volume ....         0.025         0.250
  Final Stored Volume ......         0.127         1.275
  Continuity Error (%) .....        -0.023
  
  
  *************************
  Highest Continuity Errors
  *************************
  Node 10000400_1 (-2.74%)
  Node 10000645 (1.35%)
  
  
  ***************************
  Time-Step Critical Elements
  ***************************
  None
  
  
  ********************************
  Highest Flow Instability Indexes
  ********************************
  Link SIPHON_400B (7)
  Link 19000296 (6)
  Link WEIR-13 (6)
  Link WEIR-15 (6)
  Link SIPHON_400A (6)
  
  
  *************************
  Routing Time Step Summary
  *************************
  Minimum Time Step           :     0.50 sec
  Average Time Step           :     0.50 sec
  Maximum Time Step           :     0.50 sec
  Percent in Steady State     :     0.00
  Average Iterations per Step :     2.35
  Percent Not Converging      :     5.52
  
  
  ***************************
  Subcatchment Runoff Summary
  ***************************
  
  --------------------------------------------------------------------------------------------------------
                            Total      Total      Total      Total      Total       Total     Peak  Runoff
                           Precip      Runon       Evap      Infil     Runoff      Runoff   Runoff   Coeff
  Subcatchment                 mm         mm         mm         mm         mm    10^6 ltr      LPS
  --------------------------------------------------------------------------------------------------------
  23001926                  44.86       0.00       0.00      41.10       3.57       19.49  3510.27   0.080
  23001927                  44.86       0.00       0.00      40.88       3.58        6.20   230.81   0.080
  23001928                  44.86       0.00       0.00      41.01       3.63        3.54   392.21   0.081
  23001929                  44.86       0.00       0.00      43.93       0.91        0.80   259.39   0.020
  23001930                  44.86       0.00       0.00      34.96       9.15        4.72   257.95   0.204
  23001931                  44.86       0.00       0.00      43.64       1.16        1.53   275.86   0.026
  23001932                  44.86       0.00       0.00      43.64       1.16        0.25    44.55   0.026
  23001933                  44.86       0.00       0.00      43.64       1.16        6.80  1225.81   0.026
  23001935                  44.86       0.00       0.00      44.05       0.68        2.94    69.46   0.015
  23001936                  44.86       0.00       0.00      43.92       0.79        1.66    39.10   0.018
  23001938                  44.86       0.00       0.00      43.23       1.57        0.76   279.52   0.035
  23001939                  44.86       0.00       0.00      42.29       2.35        3.36   151.94   0.052
  23001942                  44.86       0.00       0.00      42.07       2.46        5.62   178.35   0.055
  23001943                  44.86       0.00       0.00      42.67       2.07        1.01    99.86   0.046
  23001944                  44.86       0.00       0.00      42.19       2.52        0.81    98.17   0.056
  23001945                  44.86       0.00       0.00      20.92      20.58       65.58  1552.29   0.459
  23001946                  44.86       0.00       0.00      43.57       1.28        1.89   306.40   0.029
  23001947                  44.86       0.00       0.00      23.95      10.48       27.15   457.94   0.234
  23001948                  44.86       0.00       0.00      40.30       4.53        3.62   773.44   0.101
  23001949                  44.86       0.00       0.00      40.30       4.53        1.36   290.40   0.101
  23001950                  44.86       0.00       0.00      40.30       4.53        0.68   145.20   0.101
  23001951                  44.86       0.00       0.00      43.45       1.35        0.29   100.88   0.030
  23001952                  44.86       0.00       0.00      40.72       3.95        0.62   170.47   0.088
  23001953                  44.86       0.00       0.00      42.35       2.39        1.85   556.30   0.053
  23001954                  44.86       0.00       0.00      38.61       5.87       11.86  1071.49   0.131
  23001955                  44.86       0.00       0.00      38.80       5.80        9.49  3258.02   0.129
  23001956                  44.86       0.00       0.00      37.54       7.00        3.32  1185.34   0.156
  23001957                  44.86       0.00       0.00      39.31       5.25        5.08   721.98   0.117
  23001958                  44.86       0.00       0.00      27.71      16.00      117.11  8121.67   0.357
  23001960                  44.86       0.00       0.00      42.46       2.29        2.19   606.82   0.051
  23001962                  44.86       0.00       0.00      43.04       1.75        3.15   994.22   0.039
  23001963                  44.86       0.00       0.00      43.81       1.01        1.84   513.68   0.022
  23002086                  44.86       0.00       0.00      39.68       4.85        0.65    50.28   0.108
  23002087                  44.86       0.00       0.00      42.89       1.88        0.66   203.44   0.042
  
  
  ******************
  Node Depth Summary
  ******************
  
  ---------------------------------------------------------------------------------
                                 Average  Maximum  Maximum  Time of Max    Reported
                                   Depth    Depth      HGL   Occurrence   Max Depth
  Node                 Type       Meters   Meters   Meters  days hr:min      Meters
  ---------------------------------------------------------------------------------
  10000005             JUNCTION     0.36     0.71   189.02     1  03:00        0.71
  10000017             JUNCTION     0.33     1.10   174.29     1  02:11        1.09
  10000018             JUNCTION     0.47     3.49   176.16     1  02:08        1.56
  10000019             JUNCTION     0.51     3.48   176.02     1  02:08        1.66
  10000020             JUNCTION     0.58     4.90   177.26     1  02:06        1.80
  10000021             JUNCTION     0.64     1.96   174.15     1  02:09        1.96
  10000022             JUNCTION     0.53     1.84   174.51     1  02:10        1.82
  10000023             JUNCTION     0.55     1.93   174.44     1  02:10        1.91
  10000024             JUNCTION     0.63     1.98   174.34     1  02:10        1.97
  10000025             JUNCTION     0.09     4.15   178.61     1  02:06        2.28
  10000026             JUNCTION     0.08     5.42   180.11     1  01:50        2.59
  10000027             JUNCTION     0.07     4.43   179.29     1  02:06        2.81
  10000028             JUNCTION     0.07     4.36   179.41     1  01:50        3.03
  10000029             JUNCTION     0.07     3.97   179.18     1  01:49        3.26
  10000131             JUNCTION     0.08     3.44   179.00     1  01:49        3.24
  10000132             JUNCTION     0.09     0.54   178.11     1  02:25        0.54
  10000133             JUNCTION     0.07     0.41   177.15     1  02:52        0.41
  10000134             JUNCTION     0.12     1.01   176.68     1  01:41        0.97
  10000135             JUNCTION     0.10     0.96   176.52     1  01:41        0.92
  10000136             JUNCTION     0.09     0.97   176.20     1  01:41        0.95
  10000140             JUNCTION     0.14     1.41   175.97     1  01:28        1.35
  10000142             JUNCTION     0.56     1.90   174.58     1  02:10        1.89
  10000143             JUNCTION     0.07     0.12   175.72     1  03:04        0.12
  10000144             JUNCTION     0.12     0.22   176.02     1  03:02        0.22
  10000145             JUNCTION     0.33     0.63   190.83     1  05:00        0.63
  10000146             JUNCTION     0.36     0.69   190.59     1  03:04        0.69
  10000147             JUNCTION     0.09     0.16   176.36     1  03:01        0.16
  10000148             JUNCTION     0.10     0.19   176.69     1  03:00        0.19
  10000149             JUNCTION     0.09     0.18   176.98     1  03:00        0.18
  10000150             JUNCTION     0.15     0.22   176.08     1  03:00        0.22
  10000151             JUNCTION     0.15     0.22   175.81     1  03:00        0.22
  10000152             JUNCTION     0.14     0.22   175.58     1  03:00        0.22
  10000153             JUNCTION     0.15     0.23   175.40     1  03:01        0.23
  10000154             JUNCTION     0.14     0.21   175.28     1  03:01        0.21
  10000155             JUNCTION     0.15     0.23   175.15     1  03:02        0.23
  10000156             JUNCTION     0.16     0.24   174.95     1  03:03        0.24
  10000157             JUNCTION     0.15     0.23   174.59     1  03:04        0.23
  10000158             JUNCTION     0.14     0.26   174.35     1  02:13        0.26
  10000159             JUNCTION     0.10     4.19   178.45     1  02:06        1.99
  10000160             JUNCTION     0.14     4.27   178.33     1  02:06        1.87
  10000161             JUNCTION     0.16     0.85   165.92     1  01:54        0.85
  10000162             JUNCTION     0.22     0.64   166.08     1  01:52        0.64
  10000163             JUNCTION     0.36     0.91   172.86     1  02:37        0.91
  10000164             JUNCTION     0.34     0.85   173.13     1  02:37        0.85
  10000191             JUNCTION     0.08     3.99   173.76     1  01:45        1.56
  10000192             JUNCTION     0.08     2.39   172.06     1  01:46        1.36
  10000193             JUNCTION     0.08     1.24   170.81     1  01:49        1.16
  10000194             JUNCTION     0.09     1.05   170.51     1  01:49        0.99
  10000195             JUNCTION     0.12     0.92   165.62     1  01:54        0.92
  10000196             JUNCTION     0.28     4.84   172.99     1  01:40        4.84
  10000197             JUNCTION     0.25     4.97   172.91     1  01:40        4.54
  10000198             JUNCTION     0.34     5.00   172.68     1  01:40        4.67
  10000199             JUNCTION     0.34     5.20   172.84     1  01:40        4.53
  10000200             JUNCTION     0.34     5.61   173.20     1  01:40        4.40
  10000201             JUNCTION     0.30     6.03   173.49     1  01:40        4.18
  10000202             JUNCTION     0.36     0.70   190.30     1  03:01        0.70
  10000203             JUNCTION     0.39     0.77   190.07     1  03:00        0.77
  10000204             JUNCTION     0.41     0.78   189.98     1  03:00        0.78
  10000259             JUNCTION     0.37     0.72   189.82     1  03:00        0.72
  10000260             JUNCTION     0.36     0.70   189.50     1  04:26        0.70
  10000261             JUNCTION     0.36     0.69   189.24     1  04:23        0.69
  10000262             JUNCTION     0.36     0.70   189.06     1  03:00        0.70
  10000263             JUNCTION     0.37     0.70   188.80     1  03:00        0.70
  10000264             JUNCTION     0.25     0.47   188.37     1  03:01        0.47
  10000265             JUNCTION     0.25     0.47   187.67     1  03:01        0.47
  10000266             JUNCTION     0.26     0.50   187.00     1  03:01        0.50
  10000267             JUNCTION     0.34     0.67   186.17     1  03:02        0.67
  10000268             JUNCTION     0.28     0.54   185.56     1  03:02        0.54
  10000269             JUNCTION     0.29     0.56   184.46     1  03:03        0.56
  10000270             JUNCTION     0.23     0.43   183.16     1  03:03        0.43
  10000271             JUNCTION     0.23     0.44   182.07     1  03:03        0.44
  10000272             JUNCTION     0.27     0.51   181.16     1  03:03        0.51
  10000273             JUNCTION     0.36     0.84   180.84     1  03:04        0.84
  10000274             JUNCTION     0.36     0.86   180.21     1  03:05        0.86
  10000275             JUNCTION     0.37     0.86   179.54     1  03:05        0.86
  10000276             JUNCTION     0.34     0.76   178.89     1  03:06        0.76
  10000277             JUNCTION     0.31     0.67   178.55     1  03:06        0.67
  10000278             JUNCTION     0.31     0.68   177.62     1  03:07        0.68
  10000279             JUNCTION     0.31     0.69   176.56     1  03:07        0.69
  10000280             JUNCTION     0.32     0.76   175.44     1  02:33        0.76
  10000281             JUNCTION     0.38     1.05   174.63     1  02:36        1.05
  10000282             JUNCTION     0.36     0.95   173.98     1  02:36        0.95
  10000283             JUNCTION     0.37     0.89   173.30     1  02:37        0.89
  10000285             JUNCTION     0.06     0.46   184.71     1  01:38        0.46
  10000286             JUNCTION     0.06     0.48   184.17     1  01:56        0.48
  10000287             JUNCTION     0.06     0.48   183.63     1  01:30        0.48
  10000288             JUNCTION     0.06     0.47   183.23     1  02:01        0.47
  10000289             JUNCTION     0.06     0.49   182.27     1  01:36        0.49
  10000290             JUNCTION     0.16     0.50   174.34     1  02:11        0.49
  10000291             JUNCTION     0.24     0.82   174.34     1  02:12        0.77
  10000292             JUNCTION     0.36     5.53   179.93     1  02:06        2.17
  10000293             JUNCTION     0.34     6.27   181.00     1  02:06        2.21
  10000294             JUNCTION     0.38     4.86   179.82     1  02:06        2.33
  10000295             JUNCTION     0.37     4.93   180.19     1  02:06        2.40
  10000296             JUNCTION     0.38     4.11   179.65     1  02:06        2.49
  10000297             JUNCTION     0.33     4.27   180.27     1  02:06        2.27
  10000298             JUNCTION     0.33     4.60   181.01     1  02:07        2.10
  10000299             JUNCTION     0.36     3.89   180.67     1  02:08        1.96
  10000300             JUNCTION     0.36     1.96   179.00     1  02:31        1.96
  10000301             JUNCTION     0.20     1.55   179.02     1  02:31        1.55
  10000302             JUNCTION     0.09     3.94   180.00     1  01:41        3.31
  10000317             JUNCTION     0.09     5.02   180.00     1  01:41        4.30
  10000318             JUNCTION     0.15     1.02   165.56     1  01:54        1.02
  10000366             JUNCTION     0.19     2.36   177.84     1  01:53        1.86
  10000367             JUNCTION     0.36     0.64   191.30     1  04:09        0.64
  10000368             JUNCTION     0.35     0.67   191.17     1  04:10        0.67
  10000369             JUNCTION     0.14     0.57   166.11     1  01:52        0.57
  10000388             JUNCTION     0.12     5.41   176.04     1  01:42        4.19
  10000389             JUNCTION     0.12     6.25   176.76     1  01:41        3.95
  10000390             JUNCTION     0.11     7.21   177.65     1  01:41        3.74
  10000391             JUNCTION     0.12     6.00   176.31     1  01:42        3.46
  10000392             JUNCTION     0.11     4.88   175.06     1  01:42        2.96
  10000393             JUNCTION     0.10     5.19   175.26     1  01:43        2.56
  10000394             JUNCTION     0.12     5.20   176.14     1  01:41        4.77
  10000395             JUNCTION     0.13     4.35   175.17     1  01:41        4.35
  10000396             JUNCTION     0.10     5.72   175.69     1  01:44        2.18
  10000397             JUNCTION     0.09     5.71   175.58     1  01:45        1.79
  10000398             JUNCTION     0.29     3.88   171.12     1  01:40        3.80
  10000399             JUNCTION     0.28     3.59   170.19     1  01:51        3.57
  10000400             JUNCTION     0.32     3.62   170.04     1  01:51        3.60
  10000400_1A          JUNCTION     0.47     4.30   169.61     1  01:51        4.24
  10000400_1B          JUNCTION     4.89    10.37   168.82     1  01:51       10.32
  10000400_1C          JUNCTION     4.52     8.57   167.48     1  01:51        8.54
  10000400_1D          JUNCTION     0.92     2.40   166.79     1  01:51        2.38
  10000400_1E          JUNCTION     0.18     0.64   166.12     1  01:52        0.64
  10000400_2A          JUNCTION     0.58     4.86   170.07     1  01:51        4.81
  10000400_2B          JUNCTION     4.84     9.39   167.74     1  01:37        7.80
  10000400_2C          JUNCTION     4.54     9.80   168.61     1  01:37        7.32
  10000400_2D          JUNCTION     1.01     3.26   167.55     1  01:38        1.84
  10000400_2E          JUNCTION     0.15     0.48   166.11     1  01:52        0.48
  10000400_A           JUNCTION     1.09     4.08   169.49     1  01:51        4.07
  10000400_B           JUNCTION     7.91    10.95   169.50     1  01:51       10.93
  10000400_C           JUNCTION     7.13     9.09   168.10     1  01:51        9.08
  10000400_D           JUNCTION     1.52     3.47   167.96     0  00:22        2.91
  10000400_E           JUNCTION     0.43     1.30   166.73     1  01:51        1.30
  10000409             JUNCTION     0.30     0.77   175.02     1  04:00        0.76
  10000410             JUNCTION     0.29     1.45   175.86     1  01:54        0.96
  10000411             JUNCTION     0.30     1.99   176.56     1  01:53        1.16
  10000412             JUNCTION     0.32     2.78   177.49     1  01:53        1.38
  10000413             JUNCTION     0.32     2.65   177.44     1  01:53        1.43
  10000414             JUNCTION     0.33     2.49   177.36     1  01:53        1.62
  10000415             JUNCTION     0.35     2.38   177.41     1  01:53        1.85
  10000416             JUNCTION     0.32     2.41   177.69     1  01:53        1.99
  10000417             JUNCTION     0.28     2.41   177.79     1  01:53        1.98
  10000475             JUNCTION     0.42     0.89   180.89     1  03:04        0.89
  10000476             JUNCTION     0.00     0.00   183.43     0  00:00        0.00
  10000477             JUNCTION     0.02     0.02   183.24     0  10:00        0.02
  10000478             JUNCTION     0.02     0.03   183.02     0  10:00        0.03
  10000484             JUNCTION     0.02     0.06   182.87     1  02:50        0.06
  10000485             JUNCTION     0.13     0.33   182.75     1  02:50        0.33
  10000486             JUNCTION     0.13     0.34   182.46     1  02:51        0.34
  10000487             JUNCTION     0.13     0.35   182.29     1  02:52        0.35
  10000488             JUNCTION     0.13     0.35   182.12     1  02:53        0.35
  10000489             JUNCTION     0.14     0.42   181.89     1  02:33        0.42
  10000490             JUNCTION     0.12     0.34   181.58     1  02:34        0.34
  10000491             JUNCTION     0.13     0.36   181.41     1  02:34        0.36
  10000492             JUNCTION     0.13     0.37   181.09     1  02:35        0.37
  10000493             JUNCTION     0.13     0.38   180.80     1  02:36        0.38
  10000494             JUNCTION     0.20     1.21   179.92     1  02:06        1.20
  10000495             JUNCTION     0.23     1.43   179.86     1  02:06        1.43
  10000503             JUNCTION     0.38     0.70   191.22     1  04:09        0.70
  10000534             JUNCTION     0.26     1.54   179.82     1  02:06        1.54
  10000535             JUNCTION     0.17     0.49   196.57     1  02:22        0.49
  10000536             JUNCTION     0.17     0.50   195.93     1  02:26        0.50
  10000537             JUNCTION     0.18     0.50   195.31     1  02:28        0.50
  10000538             JUNCTION     0.16     0.48   195.15     1  02:31        0.48
  10000545             JUNCTION     0.15     0.42   194.47     1  02:34        0.42
  10000546             JUNCTION     0.13     0.37   193.02     1  02:35        0.37
  10000547             JUNCTION     0.12     0.34   191.39     1  02:40        0.34
  10000548             JUNCTION     0.15     0.42   189.50     1  02:38        0.42
  10000549             JUNCTION     0.14     0.40   188.31     1  03:08        0.40
  10000550             JUNCTION     0.16     0.48   187.19     1  03:15        0.48
  10000551             JUNCTION     0.13     0.35   186.09     1  02:49        0.35
  10000552             JUNCTION     0.16     0.45   185.59     1  02:59        0.45
  10000553             JUNCTION     0.15     0.44   185.00     1  02:38        0.44
  10000554             JUNCTION     0.17     0.51   182.07     1  02:40        0.51
  10000555             JUNCTION     0.08     0.22   181.58     1  02:50        0.22
  10000556             JUNCTION     0.57     1.94   174.64     1  02:10        1.94
  10000557             JUNCTION     0.47     4.12   177.15     1  02:06        2.21
  10000558             JUNCTION     0.43     4.82   178.13     1  02:06        2.42
  10000559             JUNCTION     0.45     5.58   179.00     1  02:06        2.43
  10000560             JUNCTION     0.36     6.51   180.68     1  02:06        2.05
  10000561             JUNCTION     0.54     4.92   177.37     1  02:06        1.74
  10000562             JUNCTION     0.06     0.46   181.55     1  01:40        0.46
  10000563             JUNCTION     0.11     0.60   181.02     1  01:41        0.60
  10000564             JUNCTION     0.07     0.43   180.81     1  01:41        0.43
  10000574             JUNCTION     0.08     0.47   180.38     1  01:42        0.47
  10000575             JUNCTION     0.08     0.49   180.26     1  01:43        0.49
  10000576             JUNCTION     0.08     0.53   179.47     1  02:17        0.53
  10000577             JUNCTION     0.09     0.54   178.72     1  02:25        0.54
  10000578             JUNCTION     0.09     4.22   179.14     1  01:41        4.22
  10000579             JUNCTION     0.09     4.32   179.17     1  01:41        4.28
  10000580             JUNCTION     0.09     4.83   179.31     1  01:41        4.59
  10000581             JUNCTION     0.10     6.61   180.70     1  01:41        4.89
  10000582             JUNCTION     0.10     6.41   180.14     1  01:41        5.17
  10000583             JUNCTION     0.10     6.82   180.16     1  01:41        5.48
  10000602             JUNCTION     0.10     5.95   179.00     1  01:40        5.71
  10000603             JUNCTION     0.11     5.93   178.69     1  01:39        5.93
  10000604             JUNCTION     0.13     7.13   178.72     1  01:38        7.13
  10000605             JUNCTION     0.15     7.33   178.62     1  01:38        6.83
  10000606             JUNCTION     0.14     6.54   177.72     1  01:41        6.15
  10000607             JUNCTION     0.13     5.80   176.86     1  01:41        5.42
  10000608             JUNCTION     0.13     0.33   182.62     1  02:50        0.33
  10000644             JUNCTION     0.13     0.32   182.87     1  02:50        0.32
  10000646             JUNCTION     0.28     0.72   172.89     1  01:45        0.72
  10000647             JUNCTION     0.05     0.80   170.72     1  01:47        0.80
  10000648             JUNCTION     0.32     0.98   172.58     1  01:43        0.98
  10000649             JUNCTION     0.34     0.98   172.58     1  01:43        0.98
  10000650             JUNCTION     0.09     1.04   171.98     1  01:43        1.04
  10001367             JUNCTION     0.23     0.39   177.28     1  01:27        0.39
  10001368             JUNCTION     0.22     0.36   171.84     1  01:28        0.36
  10001371             JUNCTION     0.27     0.65   172.94     1  01:45        0.64
  10001372             JUNCTION     0.29     0.71   173.26     1  01:44        0.71
  10001373             JUNCTION     0.29     0.71   173.45     1  01:45        0.71
  10001374             JUNCTION     0.29     0.71   174.38     1  04:39        0.71
  10001375             JUNCTION     0.31     0.74   174.50     1  04:20        0.74
  10001376             JUNCTION     0.29     0.71   174.56     1  03:20        0.71
  10001479             JUNCTION     0.11     0.45   165.85     1  01:52        0.45
  10001508             JUNCTION     0.43     2.19   175.44     1  01:29        2.19
  10001509             JUNCTION     0.18     0.52   171.81     1  01:29        0.52
  10001510             JUNCTION     0.12     0.34   173.30     1  06:00        0.34
  10001512             JUNCTION     0.13     0.33   170.95     1  01:30        0.33
  10001513             JUNCTION     0.22     0.65   170.57     1  01:33        0.65
  10001514             JUNCTION     0.38     0.89   170.58     1  01:36        0.89
  10001515             JUNCTION     0.21     0.56   169.73     1  01:39        0.56
  10001906             JUNCTION     0.08     0.30   169.70     1  01:32        0.30
  10001907             JUNCTION     0.32     0.78   169.68     1  01:37        0.78
  10001908             JUNCTION     0.02     0.22   163.22     1  01:44        0.22
  10001909             JUNCTION     0.04     0.37   163.67     1  01:39        0.37
  10001910             JUNCTION     0.03     0.33   163.83     1  01:43        0.33
  10001911             JUNCTION     0.00     0.00   168.15     0  00:00        0.00
  10001912             JUNCTION     0.00     0.00   168.32     0  00:00        0.00
  10001913             JUNCTION     0.09     0.48   169.36     1  01:39        0.48
  10001914             JUNCTION     0.14     0.64   164.30     1  01:39        0.64
  10410812             JUNCTION     0.09     1.15   182.95     1  01:41        1.15
  10410813             JUNCTION     0.08     1.16   182.94     1  01:41        1.16
  10410819             JUNCTION     0.07     1.15   172.49     1  01:40        1.15
  10410821             JUNCTION     1.89     4.79   160.35     1  01:50        4.79
  10410852             JUNCTION     0.05     0.85   173.82     1  01:50        0.85
  10410853             JUNCTION     0.06     0.85   173.33     1  01:50        0.85
  1045734              JUNCTION     0.11     1.17   182.99     1  01:41        1.17
  1045736              JUNCTION     0.09     1.26   187.58     1  01:40        1.26
  1046328              JUNCTION     0.04     3.47   158.17     1  01:36        2.04
  1046859              JUNCTION     0.30     4.86   182.84     1  02:14        1.52
  1048818              JUNCTION     0.03     0.29   174.05     1  01:40        0.29
  1048906              JUNCTION     0.03     0.34   157.28     1  01:53        0.34
  1048907              JUNCTION     0.06     1.64   161.11     1  01:39        1.64
  1049082              JUNCTION     0.06     1.01   187.59     1  01:40        1.00
  1049157              JUNCTION     0.06     1.67   155.32     1  01:40        1.67
  1049159              JUNCTION     0.17     3.57   155.07     1  01:40        3.56
  1049163              JUNCTION     0.02     0.26   185.69     1  01:40        0.26
  1049164              JUNCTION     0.10     1.15   183.06     1  01:41        1.15
  1049165              JUNCTION     0.06     0.98   183.07     1  01:41        0.97
  14000170             JUNCTION     0.04     0.44   163.98     1  01:43        0.44
  DORCHESTER_CSO       JUNCTION     0.21     0.62   182.40     1  01:41        0.62
  DRUMMOND_CSO         JUNCTION     0.00     0.15   186.53     1  01:40        0.15
  HIGH_LIFT_CSO        JUNCTION     0.04     0.24   173.53     1  02:10        0.24
  LOW_LIFT_PS_WEST     JUNCTION     0.07     0.93   165.72     1  01:54        0.93
  NIAGARA_WWTP_MH1     JUNCTION     1.11     2.15   173.45     1  01:50        2.15
  10001366             OUTFALL      0.00     0.00   168.22     0  00:00        0.00
  10001369             OUTFALL      0.22     0.36   168.56     1  01:28        0.36
  1045729              OUTFALL      0.00     0.23   169.99     1  01:40        0.23
  1045730              OUTFALL      0.01     0.67   154.27     1  01:40        0.67
  1045742              OUTFALL      0.00     0.14   177.91     1  01:40        0.14
  1045743              OUTFALL      0.00     0.30   181.65     1  01:41        0.30
  1048905              OUTFALL      0.03     0.34   156.28     1  01:53        0.34
  HIGH_LIFT_SPS_OVERFLOW_OUTFALL OUTFALL      0.04     0.24   171.24     1  02:10        0.24
  PELLS_CREEK_CSO      OUTFALL      0.01     0.36   178.76     1  02:31        0.36
  10000400_1           STORAGE      0.17     3.72   170.10     1  01:51        3.72
  10000400_2           STORAGE      0.14     3.70   170.08     1  01:51        3.65
  10000645             STORAGE      0.25     3.47   170.04     1  01:51        3.44
  14000026_1           STORAGE      1.68     5.10   174.11     1  02:08        5.10
  14000030_1           STORAGE      0.20     3.12   181.85     1  01:26        3.12
  14000073_1           STORAGE      0.13     2.74   172.21     1  01:19        2.74
  14000101_1           STORAGE      0.45     3.80   179.80     1  02:05        3.80
  14000109_1           STORAGE      0.16     3.96   154.84     1  01:30        3.96
  14000131             STORAGE      0.14     3.58   187.58     1  01:40        3.57
  14000137_1           STORAGE      0.20     3.00   164.35     1  01:46        3.00
  14000162             STORAGE      0.96     6.38   172.65     1  01:42        6.37
  14000163             STORAGE      0.43     3.30   164.02     1  02:12        3.30
  14000169             STORAGE      0.23     5.64   160.28     1  01:57        5.64
  
  
  *******************
  Node Inflow Summary
  *******************
  
  -------------------------------------------------------------------------------------------------
                                  Maximum  Maximum                  Lateral       Total        Flow
                                  Lateral    Total  Time of Max      Inflow      Inflow     Balance
                                   Inflow   Inflow   Occurrence      Volume      Volume       Error
  Node                 Type           LPS      LPS  days hr:min    10^6 ltr    10^6 ltr     Percent
  -------------------------------------------------------------------------------------------------
  10000005             JUNCTION      0.00  1090.37     1  03:00           0        98.8       0.009
  10000017             JUNCTION      0.00   461.28     1  02:08           0        12.8       0.056
  10000018             JUNCTION      0.00   857.94     1  02:07           0        12.9       0.022
  10000019             JUNCTION      0.32  1073.31     1  02:07      0.0622        13.2       0.043
  10000020             JUNCTION      0.00  1417.07     1  02:04           0        13.6       0.091
  10000021             JUNCTION      0.00  2970.40     1  02:03           0         125       0.024
  10000022             JUNCTION      0.00  3136.12     1  02:06           0         124       0.009
  10000023             JUNCTION      0.00  3081.61     1  02:17           0         123      -0.006
  10000024             JUNCTION      0.00  3081.36     1  02:17           0         124       0.006
  10000025             JUNCTION      0.00   783.37     1  01:50           0        4.01       0.034
  10000026             JUNCTION      0.00   781.64     1  01:49           0        4.01       0.030
  10000027             JUNCTION      0.00   776.47     1  01:50           0        4.01       0.003
  10000028             JUNCTION      0.00   775.99     1  01:50           0        4.01       0.022
  10000029             JUNCTION      0.00   775.07     1  01:50           0           4      -0.205
  10000131             JUNCTION    774.68   774.68     1  01:50        4.02        4.02       0.411
  10000132             JUNCTION      0.00   542.00     1  02:12           0        8.61       0.025
  10000133             JUNCTION      0.00   542.00     1  02:52           0         8.6       0.017
  10000134             JUNCTION      0.00   542.00     1  02:25           0         8.6       0.004
  10000135             JUNCTION      0.00   542.90     1  01:41           0         8.6       0.019
  10000136             JUNCTION      0.00   542.93     1  01:41           0         8.6      -0.011
  10000140             JUNCTION      0.00   542.94     1  01:41           0         8.6       0.008
  10000142             JUNCTION      0.00  3119.74     1  02:06           0         124       0.002
  10000143             JUNCTION      0.00    42.62     1  03:03           0        3.54       0.067
  10000144             JUNCTION      0.00    42.66     1  03:01           0        3.54       0.099
  10000145             JUNCTION      0.00  1020.24     1  04:13           0        96.5       0.019
  10000146             JUNCTION      0.00  1020.24     1  02:46           0        96.5       0.020
  10000147             JUNCTION      0.00    42.69     1  03:00           0        3.54       0.064
  10000148             JUNCTION      0.00    42.75     1  03:00           0        3.55       0.076
  10000149             JUNCTION     42.78    42.78     1  03:00        3.55        3.55       0.031
  10000150             JUNCTION     82.13    82.13     1  03:00        9.24        9.24       0.060
  10000151             JUNCTION      0.00    82.09     1  03:00           0        9.23       0.053
  10000152             JUNCTION      0.00    82.02     1  03:00           0        9.23       0.068
  10000153             JUNCTION      0.00    81.99     1  03:00           0        9.22       0.021
  10000154             JUNCTION      0.00    81.98     1  03:01           0        9.22       0.027
  10000155             JUNCTION      0.00    81.97     1  03:01           0        9.21       0.062
  10000156             JUNCTION      0.00    81.96     1  03:02           0        9.21       0.099
  10000157             JUNCTION      0.00    81.90     1  03:03           0         9.2       0.068
  10000158             JUNCTION      0.00    81.85     1  03:04           0        9.19       0.059
  10000159             JUNCTION      0.00   734.87     1  01:51           0           4       0.032
  10000160             JUNCTION      0.00   725.59     1  02:00           0           4       0.615
  10000161             JUNCTION      0.00   888.69     1  01:52           0          20       0.016
  10000162             JUNCTION      0.00   496.97     1  01:51           0        15.9       0.031
  10000163             JUNCTION      0.00  1826.74     1  02:37           0         126       0.008
  10000164             JUNCTION      0.00  1826.76     1  02:37           0         126       0.005
  10000191             JUNCTION      0.00  1225.94     1  01:45           0        8.53       0.005
  10000192             JUNCTION      0.00  1194.64     1  01:45           0        8.53       0.006
  10000193             JUNCTION      0.00  1161.87     1  01:46           0        8.52       0.006
  10000194             JUNCTION      0.00  1101.61     1  01:47           0        8.52       0.011
  10000195             JUNCTION      0.00  1939.93     1  01:54           0        28.5       0.008
  10000196             JUNCTION    260.00   260.00     1  02:10        5.46        5.46       0.006
  10000197             JUNCTION      0.00   203.45     1  01:44           0        4.94       0.010
  10000198             JUNCTION    241.43   408.41     1  03:55          10          15       0.012
  10000199             JUNCTION      0.00   408.77     1  03:53           0          15       0.005
  10000200             JUNCTION      0.00   408.68     1  03:56           0          15       0.008
  10000201             JUNCTION      0.00   408.62     1  03:56           0          15       0.013
  10000202             JUNCTION      0.00  1020.24     1  03:05           0        96.5       0.025
  10000203             JUNCTION      0.00  1020.24     1  03:02           0        96.4       0.020
  10000204             JUNCTION      0.36  1020.37     1  03:00      0.0622        96.5       0.015
  10000259             JUNCTION      0.00  1020.37     1  03:00           0        96.5       0.021
  10000260             JUNCTION      0.00  1020.37     1  03:00           0        96.4       0.025
  10000261             JUNCTION      0.00  1020.46     1  04:43           0        96.4       0.018
  10000262             JUNCTION      0.00  1021.46     1  04:41           0        96.4       0.010
  10000263             JUNCTION      0.00  1090.37     1  03:00           0        98.8       0.016
  10000264             JUNCTION      0.00  1090.37     1  03:01           0        98.8       0.008
  10000265             JUNCTION      0.00  1090.37     1  03:01           0        98.8       0.006
  10000266             JUNCTION      0.00  1090.37     1  03:01           0        98.8       0.009
  10000267             JUNCTION      0.00  1090.37     1  03:01           0        98.7       0.016
  10000268             JUNCTION      0.00  1090.37     1  03:02           0        98.7       0.015
  10000269             JUNCTION      0.00  1090.37     1  03:02           0        98.7       0.017
  10000270             JUNCTION      0.00  1090.37     1  03:03           0        98.7       0.009
  10000271             JUNCTION      0.00  1090.37     1  03:03           0        98.7       0.006
  10000272             JUNCTION      0.00  1090.37     1  03:03           0        98.7       0.008
  10000273             JUNCTION      0.00  1600.37     1  03:04           0         121       0.012
  10000274             JUNCTION      0.00  1600.37     1  03:04           0         121       0.021
  10000275             JUNCTION      0.00  1600.37     1  03:05           0         121       0.020
  10000276             JUNCTION      0.00  1600.37     1  03:06           0         121       0.011
  10000277             JUNCTION      0.57  1600.56     1  03:06      0.0985         121       0.009
  10000278             JUNCTION      0.00  1600.56     1  03:06           0         121       0.014
  10000279             JUNCTION      0.00  1600.56     1  03:07           0         121       0.018
  10000280             JUNCTION    998.98  1831.50     1  02:32        5.62         126       0.017
  10000281             JUNCTION      0.00  1831.05     1  02:33           0         126       0.019
  10000282             JUNCTION      0.00  1827.89     1  02:36           0         126       0.017
  10000283             JUNCTION      0.00  1827.03     1  02:36           0         126       0.011
  10000285             JUNCTION      0.00   465.00     1  01:25           0        5.99      -0.008
  10000286             JUNCTION      0.00   465.00     1  01:36           0        5.99       0.015
  10000287             JUNCTION      0.00   465.00     1  01:57           0        5.99       0.013
  10000288             JUNCTION      0.00   465.02     1  01:31           0        5.99       0.007
  10000289             JUNCTION      0.00   465.00     1  02:01           0        5.99       0.021
  10000290             JUNCTION      0.00   267.14     1  02:10           0         9.2       0.069
  10000291             JUNCTION      0.00   444.81     1  02:09           0        9.24       0.061
  10000292             JUNCTION      0.00  1779.34     1  04:10           0        84.9       0.013
  10000293             JUNCTION      0.00  1779.39     1  04:10           0        84.9       0.011
  10000294             JUNCTION      0.00  1779.32     1  04:10           0        84.9       0.014
  10000295             JUNCTION      0.00  1779.34     1  04:10           0        84.9       0.012
  10000296             JUNCTION    310.25  1779.37     1  04:10        3.12          85       0.012
  10000297             JUNCTION      0.00  1756.05     1  04:43           0        81.8       0.009
  10000298             JUNCTION      0.00  1756.09     1  04:43           0        81.8       0.001
  10000299             JUNCTION      0.00  1756.03     1  04:44           0        81.9       0.023
  10000300             JUNCTION      0.00  1996.27     1  04:10           0          85       0.002
  10000301             JUNCTION      0.00   443.00     1  01:46           0        19.1       0.032
  10000302             JUNCTION    276.74   276.74     1  01:50        1.83        1.83       0.037
  10000317             JUNCTION      0.00   278.07     1  01:41           0        1.83      -0.003
  10000318             JUNCTION      0.00  1939.47     1  01:55           0        28.5       0.004
  10000366             JUNCTION      0.00    39.17     1  01:53           0     0.00584      -0.956
  10000367             JUNCTION      0.00   750.00     1  02:05           0        88.2       0.006
  10000368             JUNCTION      0.00  1020.86     1  04:09           0        96.5       0.010
  10000369             JUNCTION      0.00   498.11     1  01:51           0          16       0.004
  10000388             JUNCTION      0.00  1290.64     1  01:42           0        8.54       0.004
  10000389             JUNCTION      0.00  1290.40     1  01:42           0        8.54       0.008
  10000390             JUNCTION      0.00  1290.56     1  01:42           0        8.54       0.014
  10000391             JUNCTION      0.00  1290.59     1  01:42           0        8.53       0.017
  10000392             JUNCTION      0.00  1290.58     1  01:42           0        8.53       0.012
  10000393             JUNCTION      0.00  1278.95     1  01:43           0        8.53       0.007
  10000394             JUNCTION      0.00  1291.04     1  01:42           0        8.69       0.014
  10000395             JUNCTION      0.00  1290.88     1  01:42           0        8.69       0.039
  10000396             JUNCTION      0.00  1246.64     1  01:44           0        8.53       0.013
  10000397             JUNCTION      0.00  1206.55     1  01:45           0        8.53       0.006
  10000398             JUNCTION      0.00   408.49     1  03:56           0          15       0.012
  10000399             JUNCTION    260.11   590.74     1  01:40        1.06          16       0.010
  10000400             JUNCTION      0.00    75.67     1  01:09           0        6.47      -0.012
  10000400_1A          JUNCTION      0.00   331.07     1  01:51           0        8.06       0.068
  10000400_1B          JUNCTION      0.00   330.44     1  01:50           0        8.06       0.058
  10000400_1C          JUNCTION      0.00   330.36     1  01:51           0        8.06       0.057
  10000400_1D          JUNCTION      0.00   330.53     1  01:51           0        8.05       0.042
  10000400_1E          JUNCTION      0.00   329.98     1  01:51           0        8.05       0.013
  10000400_2A          JUNCTION      0.00   171.21     1  01:38           0        1.54       0.278
  10000400_2B          JUNCTION      0.00   146.96     1  01:37           0        1.53       0.567
  10000400_2C          JUNCTION      0.00   164.14     1  01:36           0        1.53       0.689
  10000400_2D          JUNCTION      0.00   123.69     1  01:37           0        1.52       0.456
  10000400_2E          JUNCTION      0.00   114.57     1  01:51           0        1.51       0.079
  10000400_A           JUNCTION      0.00    53.58     1  01:51           0        6.42       0.084
  10000400_B           JUNCTION      0.00    53.63     1  01:50           0        6.41       0.106
  10000400_C           JUNCTION      0.00    53.50     1  01:51           0         6.4       0.020
  10000400_D           JUNCTION      0.00    53.51     1  01:51           0         6.4       0.015
  10000400_E           JUNCTION      0.00    53.50     1  01:51           0         6.4       0.017
  10000409             JUNCTION      0.00   471.98     1  04:10           0        31.8       0.016
  10000410             JUNCTION      0.00   471.98     1  04:09           0        31.8       0.026
  10000411             JUNCTION      0.00   471.97     1  04:10           0        31.8       0.025
  10000412             JUNCTION      0.00   472.00     1  03:59           0        31.8       0.017
  10000413             JUNCTION    102.69   471.98     1  04:09       0.955        31.8       0.015
  10000414             JUNCTION      0.00   463.76     1  04:10           0        30.9       0.010
  10000415             JUNCTION      0.00   463.77     1  04:09           0        30.9       0.012
  10000416             JUNCTION      0.00   463.82     1  04:09           0        30.9       0.014
  10000417             JUNCTION    463.73   463.91     1  04:09        30.9        30.9       0.003
  10000475             JUNCTION      0.00  1090.37     1  03:03           0        98.7       0.010
  10000476             JUNCTION      0.00     0.00     0  00:00           0           0       0.000 ltr
  10000477             JUNCTION      0.97     0.97     0  09:00       0.166       0.166       0.127
  10000478             JUNCTION      0.00     0.97     0  10:00           0       0.166       0.165
  10000484             JUNCTION      0.00     1.27     1  01:49           0       0.166       0.075
  10000485             JUNCTION      0.00   188.45     1  02:50           0        10.4       0.014
  10000486             JUNCTION      0.00   188.44     1  02:50           0        10.4       0.019
  10000487             JUNCTION      0.00   188.44     1  02:51           0        10.4       0.020
  10000488             JUNCTION      0.00   188.44     1  02:52           0        10.4       0.028
  10000489             JUNCTION     50.94   232.30     1  02:32       0.901        11.3       0.030
  10000490             JUNCTION      0.00   232.29     1  02:33           0        11.3       0.017
  10000491             JUNCTION      0.53   232.48     1  02:34      0.0908        11.4       0.018
  10000492             JUNCTION      0.00   232.48     1  02:34           0        11.4       0.024
  10000493             JUNCTION      0.00   232.47     1  02:35           0        11.4       0.035
  10000494             JUNCTION    159.64   391.21     1  02:30        6.99        18.3       0.018
  10000495             JUNCTION    103.22   484.08     1  02:06        2.25        20.6      -0.002
  10000503             JUNCTION      0.00  1020.62     1  04:09           0        96.5       0.009
  10000534             JUNCTION    100.51   575.62     1  02:06        1.67        22.3       0.010
  10000535             JUNCTION      0.00   510.00     1  01:55           0        22.2       0.029
  10000536             JUNCTION      0.00   510.00     1  02:22           0        22.2       0.030
  10000537             JUNCTION      0.00   510.00     1  02:26           0        22.2       0.006
  10000538             JUNCTION      0.00   510.00     1  02:28           0        22.2       0.028
  10000545             JUNCTION      0.00   510.00     1  02:30           0        22.2       0.025
  10000546             JUNCTION      0.00   510.00     1  02:32           0        22.2       0.021
  10000547             JUNCTION      0.00   510.00     1  02:36           0        22.2       0.020
  10000548             JUNCTION      0.00   510.00     1  02:42           0        22.1       0.022
  10000549             JUNCTION      0.00   510.00     1  02:37           0        22.1       0.021
  10000550             JUNCTION      0.00   510.00     1  02:53           0        22.1       0.024
  10000551             JUNCTION      0.00   510.00     1  02:41           0        22.1       0.006
  10000552             JUNCTION      0.00   510.00     1  02:41           0        22.1       0.021
  10000553             JUNCTION      0.00   510.00     1  02:41           0        22.1       0.019
  10000554             JUNCTION      0.00   510.00     1  03:01           0        22.1       0.003
  10000555             JUNCTION      0.00   510.00     1  02:41           0        22.1       0.002
  10000556             JUNCTION      0.00  3108.83     1  02:06           0         124       0.007
  10000557             JUNCTION    146.05  2668.07     1  02:06       0.996        91.7       0.021
  10000558             JUNCTION      0.00  2537.73     1  02:06           0        90.7      -0.013
  10000559             JUNCTION    291.98  1904.24     1  02:20        1.87        86.8       0.011
  10000560             JUNCTION      0.00  1779.37     1  04:10           0        84.9       0.024
  10000561             JUNCTION      0.00  1134.47     1  02:04           0        13.4       0.045
  10000562             JUNCTION      0.00   465.01     1  01:37           0        5.99       0.021
  10000563             JUNCTION      0.00   542.00     1  01:40           0        8.61       0.012
  10000564             JUNCTION      0.00   542.00     1  01:41           0        8.61       0.004
  10000574             JUNCTION      0.00   542.00     1  01:41           0        8.61       0.005
  10000575             JUNCTION      0.00   542.00     1  01:42           0        8.61       0.008
  10000576             JUNCTION      0.00   542.00     1  01:43           0        8.61       0.018
  10000577             JUNCTION      0.00   542.00     1  02:10           0        8.61       0.018
  10000578             JUNCTION      0.00   276.72     1  01:49           0        1.82      -0.025
  10000579             JUNCTION     44.77   281.78     1  01:40       0.321        1.82       0.054
  10000580             JUNCTION      0.00   281.78     1  01:40           0        1.82      -0.342
  10000581             JUNCTION      0.00   281.51     1  01:41           0        1.82      -0.165
  10000582             JUNCTION      0.00   339.18     1  01:41           0        1.83      -0.096
  10000583             JUNCTION      0.00   321.73     1  01:41           0        1.83      -0.103
  10000602             JUNCTION      0.00   294.96     1  01:40           0        1.85       0.096
  10000603             JUNCTION      0.00   279.61     1  01:39           0        1.87      -0.371
  10000604             JUNCTION   1226.16  1291.49     1  01:42        6.92        8.73       0.078
  10000605             JUNCTION      0.00  1291.41     1  01:42           0        8.69       0.018
  10000606             JUNCTION      0.00  1291.27     1  01:42           0        8.69       0.011
  10000607             JUNCTION      0.00  1291.17     1  01:42           0        8.69       0.013
  10000608             JUNCTION      0.00   188.45     1  02:50           0        10.4       0.015
  10000644             JUNCTION    188.11   188.46     1  02:50        10.2        10.4       0.007
  10000646             JUNCTION      0.00  1012.85     1  01:43           0        64.2       0.008
  10000647             JUNCTION      0.00  4679.66     1  01:44           0        40.8       0.003
  10000648             JUNCTION      0.00  4753.47     1  05:08           0         173       0.028
  10000649             JUNCTION      0.00  2693.34     1  01:43           0         130       0.004
  10000650             JUNCTION      0.00  4593.81     1  01:43           0        40.8      -0.002
  10001367             JUNCTION      0.00  1579.00     0  00:00           0         169       0.004
  10001368             JUNCTION      0.00  1579.03     1  01:27           0         169       0.003
  10001371             JUNCTION      0.00  1004.70     1  01:44           0        64.2       0.000
  10001372             JUNCTION      0.00  1001.37     1  01:45           0        64.2       0.021
  10001373             JUNCTION      0.00  1000.00     1  05:44           0        64.2       0.014
  10001374             JUNCTION      0.00  1000.00     1  04:39           0        64.2       0.015
  10001375             JUNCTION      0.00  1000.00     1  04:39           0        64.2       0.011
  10001376             JUNCTION      0.00  1000.00     1  02:12           0        64.2       0.003
  10001479             JUNCTION    393.53   888.77     1  01:51        4.02          20       0.008
  10001508             JUNCTION   8149.63  8691.60     1  02:00         132         140       0.002
  10001509             JUNCTION      0.00  1441.44     1  06:00           0        73.1       0.002
  10001510             JUNCTION      0.00  1441.44     1  05:32           0        73.1       0.001
  10001512             JUNCTION      0.00  1443.62     1  01:29           0        73.1       0.002
  10001513             JUNCTION      0.00  1443.15     1  01:30           0        73.1       0.003
  10001514             JUNCTION      0.00  1472.19     1  01:30           0        73.1       0.035
  10001515             JUNCTION      0.00  1441.88     1  01:39           0          73       0.003
  10001906             JUNCTION      0.00   100.00     1  01:31           0         3.7       0.025
  10001907             JUNCTION      0.00  1542.16     1  01:37           0        76.7       0.013
  10001908             JUNCTION      0.00   541.52     1  01:40           0        12.5       0.004
  10001909             JUNCTION      0.00   541.54     1  01:43           0        12.5      -0.002
  10001910             JUNCTION      0.00   541.55     1  01:43           0        12.5      -0.004
  10001911             JUNCTION      0.00     0.00     0  00:00           0           0       0.000 ltr
  10001912             JUNCTION      0.00     0.00     0  00:00           0           0       0.000 ltr
  10001913             JUNCTION      0.00  1541.66     1  01:39           0        76.7       0.000
  10001914             JUNCTION      0.00  1541.65     1  01:39           0        76.7       0.000
  10410812             JUNCTION      0.00  2509.92     1  01:41           0        18.6       0.001
  10410813             JUNCTION      0.00  2508.11     1  01:41           0        18.6      -0.253
  10410819             JUNCTION      0.00  1187.47     1  01:40           0        4.89      -0.004
  10410821             JUNCTION      0.00   639.40     1  01:41           0        6.43       0.084
  10410852             JUNCTION   3511.10  3511.10     1  01:50        19.7        19.7      -0.000
  10410853             JUNCTION      0.00  3509.25     1  01:50           0        19.7       0.003
  1045734              JUNCTION      0.00  2512.66     1  01:40           0        18.6       0.005
  1045736              JUNCTION      0.00   610.24     1  01:40           0        3.65       0.020
  1046328              JUNCTION   3259.81  3259.81     1  01:40        10.4        10.4      -0.001
  1046859              JUNCTION   1553.26  1553.26     1  04:10          66          66       0.029
  1048818              JUNCTION   1188.37  1188.37     1  01:40        4.89        4.89       0.004
  1048906              JUNCTION      0.00   999.86     1  02:15           0        15.2       0.000
  1048907              JUNCTION    725.76   725.76     1  01:50        6.63        6.63       0.015
  1049082              JUNCTION    610.74   610.74     1  01:40        3.65        3.65       0.009
  1049157              JUNCTION      0.00  3259.98     1  01:40           0        10.4       0.002
  1049159              JUNCTION      0.00  1742.30     1  01:40           0        7.94       0.008
  1049163              JUNCTION   1276.17  1276.17     1  01:40        5.36        5.36       0.019
  1049164              JUNCTION      0.00  2541.54     1  01:40           0        18.6      -0.009
  1049165              JUNCTION   1378.93  1378.93     1  01:50        13.3        13.3       0.003
  14000170             JUNCTION      0.00   541.65     1  01:39           0        12.5       0.005
  DORCHESTER_CSO       JUNCTION      0.00   863.68     1  01:41           0        1.72       0.024
  DRUMMOND_CSO         JUNCTION      0.00   536.07     1  01:40           0        1.25       0.000
  HIGH_LIFT_CSO        JUNCTION      0.00   461.47     1  02:10           0        12.2       0.000
  LOW_LIFT_PS_WEST     JUNCTION      0.00  1086.36     1  01:49           0        8.52       0.002
  NIAGARA_WWTP_MH1     JUNCTION      0.00  3507.42     1  01:50           0        19.7      -0.019
  10001366             OUTFALL       0.00  4358.30     1  01:44           0        40.8       0.000
  10001369             OUTFALL       0.00  1579.01     1  01:28           0         169       0.000
  1045729              OUTFALL       0.00   362.95     1  01:40           0       0.265       0.000
  1045730              OUTFALL       0.00  1502.40     1  01:40           0        2.48       0.000
  1045742              OUTFALL       0.00   536.01     1  01:40           0        1.25       0.000
  1045743              OUTFALL       0.00   862.90     1  01:41           0        1.72       0.000
  1048905              OUTFALL       0.00   999.79     1  01:53           0        15.2       0.000
  HIGH_LIFT_SPS_OVERFLOW_OUTFALL OUTFALL       0.00   460.52     1  02:10           0        12.2       0.000
  PELLS_CREEK_CSO      OUTFALL       0.00   413.30     1  02:31           0        3.17       0.000
  10000400_1           STORAGE       0.00  4400.10     1  04:17           0        14.5      -2.664
  10000400_2           STORAGE       0.00  3698.00     1  04:17           0        5.62       0.610
  10000645             STORAGE       0.00  7365.14     1  04:17           0          27       1.367
  14000026_1           STORAGE       0.00  2900.44     1  02:14           0         124      -0.014
  14000030_1           STORAGE       0.00  3392.39     1  03:16           0          17      -0.052
  14000073_1           STORAGE       0.00   814.60     1  01:40           0        4.63      -0.001
  14000101_1           STORAGE       0.00   575.80     1  02:06           0        22.3      -0.007
  14000109_1           STORAGE       0.00  1742.21     1  01:40           0        7.95      -0.040
  14000131             STORAGE       0.00   132.04     1  01:30           0         2.4      -0.026
  14000137_1           STORAGE       0.00  1939.40     1  01:55           0        28.5      -0.001
  14000162             STORAGE       0.00  3071.12     1  01:41           0         169      -0.016
  14000163             STORAGE       0.00  1000.00     1  01:24           0        64.2      -0.000
  14000169             STORAGE       0.00   272.99     1  01:34           0         3.7      -0.024
  
  
  **********************
  Node Surcharge Summary
  **********************
  
  Surcharging occurs when water rises above the top of the highest conduit.
  ---------------------------------------------------------------------
                                               Max. Height   Min. Depth
                                   Hours       Above Crown    Below Rim
  Node                 Type      Surcharged         Meters       Meters
  ---------------------------------------------------------------------
  10000018             JUNCTION       14.11          2.112        4.900
  10000019             JUNCTION       15.85          2.103        5.204
  10000020             JUNCTION       17.25          3.528        2.874
  10000022             JUNCTION       14.46          0.463        3.530
  10000023             JUNCTION       15.34          0.463        3.648
  10000025             JUNCTION        1.64          3.328        1.472
  10000026             JUNCTION        1.43          4.600        0.439
  10000027             JUNCTION        1.31          3.607        0.902
  10000028             JUNCTION        1.22          3.536        1.008
  10000029             JUNCTION        1.00          2.936        0.000
  10000131             JUNCTION        0.98          2.615        0.000
  10000134             JUNCTION        1.64          0.099        1.316
  10000135             JUNCTION        1.85          0.245        1.411
  10000136             JUNCTION        1.98          0.236        0.785
  10000140             JUNCTION        6.21          0.736        0.000
  10000142             JUNCTION       14.39          0.522        6.665
  10000159             JUNCTION        1.93          3.364        2.663
  10000160             JUNCTION        3.22          3.443        2.809
  10000191             JUNCTION        0.81          3.092        1.837
  10000192             JUNCTION        0.72          1.488        3.539
  10000193             JUNCTION        0.62          0.335        5.069
  10000194             JUNCTION        0.42          0.148        5.738
  10000196             JUNCTION        4.46          4.466        0.000
  10000197             JUNCTION        4.10          4.448        0.000
  10000198             JUNCTION        4.57          4.471        0.000
  10000199             JUNCTION        4.51          4.677        0.000
  10000200             JUNCTION        4.33          5.040        0.000
  10000201             JUNCTION        4.46          5.507        0.000
  10000281             JUNCTION        0.01          0.001        1.609
  10000292             JUNCTION        4.08          4.334        1.066
  10000293             JUNCTION        4.17          5.070        0.000
  10000294             JUNCTION        4.45          3.664        1.226
  10000295             JUNCTION        4.54          3.728        0.812
  10000296             JUNCTION        4.65          2.914        0.848
  10000297             JUNCTION        4.39          3.068        0.756
  10000298             JUNCTION        4.05          3.288        0.000
  10000299             JUNCTION        4.08          2.687        0.000
  10000301             JUNCTION        3.63          0.353        1.011
  10000302             JUNCTION        0.81          3.410        0.000
  10000317             JUNCTION        0.80          3.425        0.000
  10000366             JUNCTION        5.09          1.685        5.023
  10000388             JUNCTION        1.40          4.444        0.996
  10000389             JUNCTION        1.48          5.353        4.082
  10000390             JUNCTION        1.45          6.313        0.000
  10000391             JUNCTION        1.44          5.098        0.000
  10000392             JUNCTION        1.35          3.979        0.000
  10000393             JUNCTION        1.28          4.289        0.000
  10000394             JUNCTION        1.41          4.303        2.352
  10000395             JUNCTION        1.39          3.448        0.000
  10000396             JUNCTION        1.06          4.822        0.000
  10000397             JUNCTION        0.88          4.812        0.000
  10000398             JUNCTION        4.25          3.357        2.030
  10000399             JUNCTION        3.41          2.689        2.729
  10000400             JUNCTION        4.05          3.017        0.000
  10000400_1A          JUNCTION       23.87          3.897        0.000
  10000400_1B          JUNCTION       46.82          9.973        0.000
  10000400_1C          JUNCTION       46.75          8.173        0.000
  10000400_1D          JUNCTION       46.71          1.995        0.000
  10000400_2A          JUNCTION       46.35          4.260        0.000
  10000400_2B          JUNCTION       46.37          8.793        0.000
  10000400_2C          JUNCTION       46.36          9.203        0.000
  10000400_2D          JUNCTION       46.34          2.662        0.000
  10000400_A           JUNCTION       64.28          3.485        0.000
  10000400_B           JUNCTION       71.64         10.347        0.000
  10000400_C           JUNCTION       71.62          8.892        0.000
  10000400_D           JUNCTION       71.60          3.273        0.000
  10000400_E           JUNCTION       71.53          1.104        0.000
  10000409             JUNCTION        2.64          0.071        6.179
  10000410             JUNCTION        3.94          0.766        5.861
  10000411             JUNCTION        4.58          1.304        5.016
  10000412             JUNCTION        4.87          2.069        3.251
  10000413             JUNCTION        5.41          1.972        3.488
  10000414             JUNCTION        5.68          1.784        2.904
  10000415             JUNCTION        6.51          1.684        4.699
  10000416             JUNCTION        5.93          1.721        4.697
  10000417             JUNCTION        5.68          1.736        5.019
  10000495             JUNCTION        1.45          0.463        7.964
  10000534             JUNCTION        2.47          0.563        6.493
  10000557             JUNCTION        5.88          2.750        4.830
  10000558             JUNCTION        4.83          3.372        3.483
  10000559             JUNCTION        1.90          3.891        2.953
  10000560             JUNCTION        2.55          5.314        0.316
  10000561             JUNCTION       16.69          3.540        3.474
  10000578             JUNCTION        0.97          3.689        0.000
  10000579             JUNCTION        0.98          3.787        0.287
  10000580             JUNCTION        1.04          4.305        0.843
  10000581             JUNCTION        1.09          6.081        0.000
  10000582             JUNCTION        1.15          5.884        0.000
  10000583             JUNCTION        1.21          6.292        0.000
  10000602             JUNCTION        1.25          5.422        0.000
  10000603             JUNCTION        1.27          5.402        0.000
  10000604             JUNCTION        1.29          5.703        0.000
  10000605             JUNCTION        1.57          6.506        0.000
  10000606             JUNCTION        1.54          5.715        0.280
  10000607             JUNCTION        1.50          4.976        0.161
  10001508             JUNCTION        9.39          1.520        0.000
  10001914             JUNCTION       71.98          0.643       10.151
  10410821             JUNCTION        1.09          1.513        2.616
  1046328              JUNCTION        0.30          2.649        1.326
  1046859              JUNCTION        2.98          3.658        0.000
  1048907              JUNCTION        0.88          1.119        0.000
  1049159              JUNCTION        3.21          2.666        5.024
  
  
  *********************
  Node Flooding Summary
  *********************
  
  Flooding refers to all water that overflows a node, whether it ponds or not.
  --------------------------------------------------------------------------
                                                             Total   Maximum
                                 Maximum   Time of Max       Flood    Ponded
                        Hours       Rate    Occurrence      Volume     Depth
  Node                 Flooded       LPS   days hr:min    10^6 ltr    Meters
  --------------------------------------------------------------------------
  10000029                0.01     62.23      1  01:49       0.000     0.000
  10000131                0.01     24.80      1  02:06       0.000     0.000
  10000140                0.01     97.70      1  01:28       0.000     0.000
  10000196                2.21    106.31      1  02:10       0.525     0.000
  10000197                0.01     24.98      1  01:40       0.000     0.000
  10000198                0.01     41.81      1  01:40       0.000     0.000
  10000199                0.01     25.61      1  01:40       0.000     0.000
  10000200                0.01      7.50      1  01:40       0.000     0.000
  10000201                0.01    100.87      1  01:40       0.000     0.000
  10000293                0.01    142.99      1  02:06       0.000     0.000
  10000298                0.01    128.61      1  02:07       0.000     0.000
  10000299                0.01     83.35      1  02:08       0.000     0.000
  10000302                0.01     75.30      1  01:41       0.000     0.000
  10000317                0.01    210.52      1  01:41       0.000     0.000
  10000390                0.01    243.19      1  01:41       0.000     0.000
  10000391                0.01    527.66      1  01:42       0.001     0.000
  10000392                0.01    521.14      1  01:42       0.001     0.000
  10000393                0.01    553.10      1  01:43       0.001     0.000
  10000395                0.42    148.22      1  01:49       0.145     0.000
  10000396                0.01    453.77      1  01:44       0.001     0.000
  10000397                0.01    150.46      1  01:45       0.000     0.000
  10000578                0.63    239.89      1  01:41       0.329     0.000
  10000581                0.01    215.73      1  01:41       0.001     0.000
  10000582                0.01    290.02      1  01:41       0.001     0.000
  10000583                0.01    300.36      1  01:41       0.001     0.000
  10000602                0.01    273.49      1  01:40       0.000     0.000
  10000603                0.25    250.21      1  01:39       0.056     0.000
  10000604                0.02    156.56      1  01:38       0.001     0.000
  10000605                0.01     47.26      1  01:38       0.000     0.000
  10001508                5.93   7250.15      1  02:00      67.143     0.000
  1046859                 0.01    139.26      1  02:14       0.000     0.000
  1048907                 0.59    167.37      1  01:50       0.200     0.000
  14000026_1             12.79   2150.43      1  02:14      35.939     0.000
  14000030_1              3.86   2731.81      1  03:16       8.644     0.000
  14000073_1              2.85    737.60      1  01:40       2.002     0.000
  14000101_1              0.85     65.77      1  02:06       0.109     0.000
  14000109_1              1.05   1277.16      1  01:40       1.961     0.000
  14000137_1              3.82   1496.40      1  01:55       9.398     0.000
  
  
  **********************
  Storage Volume Summary
  **********************
  
  --------------------------------------------------------------------------------------------------
                         Average     Avg  Evap Exfil       Maximum     Max    Time of Max    Maximum
                          Volume    Pcnt  Pcnt  Pcnt        Volume    Pcnt     Occurrence    Outflow
  Storage Unit           1000 m3    Full  Loss  Loss       1000 m3    Full    days hr:min        LPS
  --------------------------------------------------------------------------------------------------
  10000400_1               0.000       0     0     0         0.000       0       0  00:00    3854.46
  10000400_2               0.000       0     0     0         0.000       0       0  00:00    3710.08
  10000645                 0.002       2     0     0         0.035      35       1  01:51    6726.32
  14000026_1               0.432      33     0     0         1.313     100       1  02:08     750.00
  14000030_1               0.004       6     0     0         0.062     100       1  01:26     271.56
  14000073_1               0.000       5     0     0         0.010     100       1  01:19      77.00
  14000101_1               0.023      12     0     0         0.194     100       1  02:05     510.00
  14000109_1               0.004       4     0     0         0.098     100       1  01:30     465.00
  14000131                 0.001       2     0     0         0.025      60       1  01:40      70.00
  14000137_1               0.012       7     0     0         0.171     100       1  01:46     443.00
  14000162                 0.071      10     0     0         0.470      66       1  01:42    1579.00
  14000163                 0.010       4     0     0         0.076      30       1  02:12    1000.00
  14000169                 0.003       2     0     0         0.081      57       1  01:57     100.00
  
  
  ***********************
  Outfall Loading Summary
  ***********************
  
  -----------------------------------------------------------
                         Flow       Avg       Max       Total
                         Freq      Flow      Flow      Volume
  Outfall Node           Pcnt       LPS       LPS    10^6 ltr
  -----------------------------------------------------------
  10001366              14.81   1062.68   4358.30      40.788
  10001369              99.86    654.71   1579.01     169.416
  1045729                1.00    102.24    362.95       0.265
  1045730                2.30    415.37   1502.40       2.479
  1045742                3.29    146.62    536.01       1.250
  1045743                2.39    277.05    862.90       1.717
  1048905               11.15    526.99    999.79      15.221
  HIGH_LIFT_SPS_OVERFLOW_OUTFALL  23.02    204.98    460.52      12.228
  PELLS_CREEK_CSO        5.11    239.76    413.30       3.174
  -----------------------------------------------------------
  System                18.10   3630.41   9680.58     246.538
  
  
  ********************
  Link Flow Summary
  ********************
  
  -----------------------------------------------------------------------------
                                 Maximum  Time of Max   Maximum    Max/    Max/
                                  |Flow|   Occurrence   |Veloc|    Full    Full
  Link                 Type          LPS  days hr:min     m/sec    Flow   Depth
  -----------------------------------------------------------------------------
  10411519             CONDUIT   1742.21     1  01:40      2.74    0.59    1.00
  10411521             CONDUIT    362.95     1  01:40      3.10    0.20    0.30
  10411522             CONDUIT   1502.40     1  01:40      2.95    0.91    0.75
  10411523             CONDUIT   2508.11     1  01:41      2.41    0.79    0.77
  10411529             CONDUIT   2509.92     1  01:41      1.71    1.21    0.77
  10413001             CONDUIT   1742.30     1  01:40      3.26    0.35    1.00
  10413002             CONDUIT   3259.98     1  01:40      6.10    1.16    1.00
  10414018             CONDUIT   1380.03     1  01:50      1.48    0.30    0.71
  10414277             CONDUIT   2512.66     1  01:40      1.73    0.89    0.77
  10414278             CONDUIT   1275.00     1  01:40      5.67    0.08    0.32
  10414538             CONDUIT    541.47     1  01:44      3.02    0.03    0.12
  10414652             CONDUIT    610.24     1  01:40      1.43    0.23    0.98
  10414957             CONDUIT   1187.47     1  01:40      3.68    0.19    0.45
  10414991             CONDUIT    272.99     1  01:34      1.73    4.01    1.00
  10414992             CONDUIT    536.01     1  01:40      7.36    0.04    0.14
  10414993             CONDUIT    862.90     1  01:41      3.37    0.09    0.20
  10415071             CONDUIT    999.79     1  01:53      2.81    0.06    0.17
  10415072             CONDUIT    458.42     1  02:15      0.98    1.42    0.69
  10415073             CONDUIT    639.40     1  01:41      3.38    0.77    1.00
  10417004             CONDUIT   1553.27     1  04:10      1.69    1.09    1.00
  10417022             CONDUIT   3443.10     1  05:08     22.50    5.18    1.00
  10417023             CONDUIT   3509.25     1  01:50      3.41    0.61    0.57
  10417024             CONDUIT   3507.42     1  01:50      2.92    0.61    0.64
  10417026             CONDUIT   3392.39     1  03:16     17.85    3.41    1.00
  19000010             CONDUIT   1020.24     1  02:46      1.60    0.55    0.55
  19000011             CONDUIT   1020.24     1  03:05      1.51    0.63    0.58
  19000012             CONDUIT   1020.24     1  03:02      1.42    0.64    0.61
  19000013             CONDUIT   1020.26     1  03:01      1.33    0.71    0.64
  19000045             CONDUIT   3119.74     1  02:06      2.19    1.90    1.00
  19000046             CONDUIT     81.99     1  03:00      0.75    0.19    0.30
  19000047             CONDUIT     81.98     1  03:01      0.84    0.20    0.27
  19000048             CONDUIT   1826.74     1  02:37      2.38    0.97    0.84
  19000049             CONDUIT      0.97     0  10:00      0.31    0.00    0.07
  19000050             CONDUIT    188.44     1  02:51      1.31    0.81    0.69
  19000051             CONDUIT    188.44     1  02:52      1.30    0.83    0.69
  19000052             CONDUIT    188.43     1  02:53      1.19    0.83    0.76
  19000053             CONDUIT    232.29     1  02:33      1.47    1.01    0.75
  19000054             CONDUIT    232.29     1  02:34      1.58    0.79    0.70
  19000071             CONDUIT   1023.02     1  01:43      2.03    1.00    0.76
  19000088             CONDUIT    510.00     1  02:41      2.38    0.49    0.49
  19000089             CONDUIT    752.13     1  06:38      1.34    0.48    0.56
  19000090             CONDUIT    510.00     1  02:36      1.88    0.19    0.65
  19000091             CONDUIT    463.76     1  04:10      1.30    1.74    1.00
  19000121             CONDUIT      1.45     1  03:00      0.42    0.00    0.26
  19000122             CONDUIT   1459.19     1  01:43      1.64    0.56    0.41
  19000125             CONDUIT    483.94     1  02:06      1.26    0.65    1.00
  19000126             CONDUIT    465.00     1  01:36      1.79    0.80    0.69
  19000127             CONDUIT    465.00     1  01:57      1.73    0.85    0.71
  19000128             CONDUIT    408.68     1  03:56      1.89    2.29    1.00
  19000129             CONDUIT    408.62     1  03:56      1.89    1.61    1.00
  19000131             CONDUIT     42.60     1  03:04      1.22    0.16    0.27
  19000132             CONDUIT    424.54     1  02:08      0.91    0.76    1.00
  19000133             CONDUIT    857.94     1  02:07      0.71    0.48    1.00
  19000134             CONDUIT    542.00     1  01:43      1.90    0.88    0.75
[...]
  19000618                1.00   0.00  0.00  0.00  1.00  0.00  0.00  0.00  0.00  0.00
  19000619                1.00   0.02  0.00  0.00  0.00  0.00  0.00  0.98  0.00  0.00
  19000620                1.00   0.02  0.00  0.00  0.98  0.00  0.00  0.00  0.92  0.00
  19000621                1.00   0.02  0.00  0.00  0.98  0.00  0.00  0.00  0.00  0.00
  19000622                1.00   0.01  0.00  0.00  0.99  0.00  0.00  0.00  0.90  0.00
  19000650                1.00   0.35  0.00  0.00  0.00  0.00  0.00  0.65  0.00  0.00
  19000666                1.00   0.00  0.00  0.00  1.00  0.00  0.00  0.00  0.92  0.00
  19000667                1.00   0.00  0.00  0.00  1.00  0.00  0.00  0.00  0.97  0.00
  19000668                1.00   0.01  0.00  0.00  0.02  0.00  0.00  0.97  0.00  0.00
  19000669                1.00   0.00  0.00  0.00  0.98  0.00  0.00  0.01  0.95  0.00
  19000670                1.00   0.00  0.00  0.00  0.12  0.00  0.00  0.88  0.03  0.00
  19000671                1.00   0.00  0.00  0.00  1.00  0.00  0.00  0.00  0.92  0.00
  19000672                1.00   0.00  0.00  0.00  0.06  0.00  0.00  0.94  0.00  0.00
  19000673                1.00   0.00  0.00  0.00  1.00  0.00  0.00  0.00  0.92  0.00
  19000674                1.00   0.00  0.00  0.00  1.00  0.00  0.00  0.00  0.82  0.00
  19000679                1.00   0.00  0.00  0.00  1.00  0.00  0.00  0.00  0.01  0.00
  19000684                1.00   0.00  0.00  0.00  0.99  0.00  0.00  0.00  0.96  0.00
  19000686                1.00   0.00  0.00  0.00  0.45  0.55  0.00  0.00  0.00  0.00
  19000687                1.00   0.00  0.00  0.00  0.01  0.99  0.00  0.00  0.97  0.00
  19000688                1.00   0.00  0.00  0.00  0.02  0.98  0.00  0.00  0.99  0.00
  19000689                1.00   0.00  0.00  0.00  0.08  0.92  0.00  0.00  1.00  0.00
  19000690                1.00   0.00  0.00  0.00  1.00  0.00  0.00  0.00  0.00  0.00
  19000691                1.00   0.00  0.00  0.00  1.00  0.00  0.00  0.00  0.79  0.00
  19000692                1.00   0.00  0.00  0.00  1.00  0.00  0.00  0.00  0.01  0.00
  19000693                1.00   0.00  0.00  0.00  0.00  1.00  0.00  0.00  0.99  0.00
  19000694                1.00   0.00  0.00  0.00  0.00  1.00  0.00  0.00  0.00  0.00
  19000695                1.00   0.00  0.00  0.00  0.00  1.00  0.00  0.00  0.01  0.00
  19000696                1.00   0.00  0.00  0.00  0.00  1.00  0.00  0.00  0.99  0.00
  19000763                1.00   0.35  0.50  0.00  0.00  0.14  0.00  0.00  0.64  0.00
  19000818                1.00   0.00  0.00  0.00  0.21  0.79  0.00  0.00  0.17  0.00
  19000823                1.00   0.00  0.00  0.00  0.32  0.00  0.00  0.68  0.01  0.00
  19001284                1.00   0.00  0.00  0.00  1.00  0.00  0.00  0.00  0.06  0.00
  19001285                1.00   0.00  0.00  0.00  1.00  0.00  0.00  0.00  0.72  0.00
  19001329                1.00   0.00  0.00  0.00  0.00  1.00  0.00  0.00  0.11  0.00
  19001330                1.00   0.00  0.00  0.00  0.15  0.00  0.00  0.84  0.01  0.00
  19001332                1.00   0.00  0.00  0.00  0.00  0.00  0.00  1.00  0.00  0.00
  19001334                1.00   0.00  0.00  0.00  0.12  0.00  0.00  0.88  0.00  0.00
  19001335                1.00   0.00  0.00  0.00  0.12  0.00  0.00  0.88  0.00  0.00
  19001336                1.00   0.00  0.00  0.00  0.98  0.00  0.00  0.01  0.00  0.00
  19001337                1.00   0.00  0.00  0.00  0.00  0.00  0.00  1.00  0.00  0.00
  19001338                1.00   0.00  0.00  0.00  1.00  0.00  0.00  0.00  0.00  0.00
  19001339                1.00   0.00  0.00  0.00  0.99  0.00  0.00  0.01  0.00  0.00
  19001447                1.00   0.00  0.01  0.00  0.99  0.00  0.00  0.00  0.00  0.00
  19001448                1.00   0.00  0.00  0.00  0.84  0.16  0.00  0.00  1.00  0.00
  19001487                1.00   1.00  0.00  0.00  0.00  0.00  0.00  0.00  0.00  0.00
  19001488                1.00   1.00  0.00  0.00  0.00  0.00  0.00  0.00  0.00  0.00
  19001489                1.00   0.00  0.00  0.00  0.00  1.00  0.00  0.00  0.00  0.00
  19001490                1.00   0.00  0.00  0.00  0.00  1.00  0.00  0.00  1.00  0.00
  19001493                1.00   0.00  0.00  0.00  0.00  1.00  0.00  0.00  0.00  0.00
  19001494                1.00   0.00  0.00  0.00  0.00  1.00  0.00  0.00  1.00  0.00
  19001495                1.00   0.00  0.00  0.00  1.00  0.00  0.00  0.00  0.85  0.00
  19001496                1.00   0.00  0.00  0.00  0.00  0.00  1.00  0.00  0.00  0.00
  19001497                1.00   0.00  0.00  0.00  1.00  0.00  0.00  0.00  1.00  0.00
  19001827                1.00   0.00  0.00  0.00  1.00  0.00  0.00  0.00  0.88  0.00
  19001828                1.00   0.35  0.00  0.00  0.54  0.11  0.00  0.00  0.54  0.00
  19001829                1.00   0.35  0.00  0.00  0.55  0.09  0.00  0.00  0.11  0.00
  19001830                1.00   0.89  0.11  0.00  0.00  0.00  0.00  0.00  0.00  0.00
  19001833                1.00   0.35  0.00  0.00  0.00  0.00  0.00  0.65  0.00  0.00
  19001834                1.00   0.00  0.00  0.00  0.00  1.00  0.00  0.00  0.00  0.00
  DORCHESTER_SPS_PIPE     1.00   0.00  0.00  0.00  1.00  0.00  0.00  0.00  0.00  0.00
  DRUMMOND_INFLOW         1.00   0.00  0.00  0.00  0.04  0.00  0.00  0.96  0.00  0.00
  HIGH_LIFT_SPS_OVERFLOW_PIPE    1.00   0.36  0.00  0.00  0.41  0.23  0.00  0.00  0.00  0.00
  LOW_LIFT_PS_WEST_INLET    1.00   0.00  0.02  0.00  0.98  0.00  0.00  0.00  0.82  0.00
  PELLS_CREEK_OVERFLOW    1.00   0.95  0.00  0.00  0.01  0.04  0.00  0.00  0.00  0.00
  SIPHON_200              1.00   0.00  0.00  0.00  0.99  0.01  0.00  0.00  0.30  0.00
  SIPHON_200A             1.00   0.00  0.00  0.00  1.00  0.00  0.00  0.00  0.00  0.00
  SIPHON_200B             1.00   0.00  0.00  0.00  1.00  0.00  0.00  0.00  0.00  0.00
  SIPHON_200C             1.00   0.00  0.00  0.00  0.99  0.00  0.00  0.00  0.00  0.00
  SIPHON_200D             1.00   0.01  0.00  0.00  0.99  0.00  0.00  0.00  0.00  0.00
  SIPHON_200E             1.00   0.01  0.00  0.00  0.23  0.00  0.76  0.00  0.00  0.00
  SIPHON_400              1.00   0.35  0.21  0.00  0.44  0.00  0.00  0.00  0.56  0.00
  SIPHON_400A             1.00   0.35  0.00  0.00  0.65  0.00  0.00  0.00  0.00  0.00
  SIPHON_400B             1.00   0.35  0.00  0.00  0.65  0.00  0.00  0.00  0.00  0.00
  SIPHON_400C             1.00   0.35  0.00  0.00  0.65  0.00  0.00  0.00  0.00  0.00
  SIPHON_400D             1.00   0.35  0.00  0.00  0.65  0.00  0.00  0.00  0.00  0.00
  SIPHON_600              1.00   0.36  0.57  0.00  0.08  0.00  0.00  0.00  0.58  0.00
  SIPHON_600A             1.00   0.36  0.00  0.00  0.64  0.00  0.00  0.00  0.00  0.00
  SIPHON_600B             1.00   0.36  0.00  0.00  0.64  0.00  0.00  0.00  0.00  0.00
  SIPHON_600C             1.00   0.36  0.00  0.00  0.64  0.00  0.00  0.00  0.00  0.00
  SIPHON_600D             1.00   0.36  0.00  0.00  0.64  0.00  0.00  0.00  0.00  0.00
  
  
  *************************
  Conduit Surcharge Summary
  *************************
  
  ----------------------------------------------------------------------------
                                                           Hours        Hours 
                         --------- Hours Full --------   Above Full   Capacity
  Conduit                Both Ends  Upstream  Dnstream   Normal Flow   Limited
  ----------------------------------------------------------------------------
  10411519                    3.21      3.21      3.42      0.01         0.01
  10411529                    0.01      0.01      0.01      0.35         0.01
  10413001                    1.72      1.72      3.21      0.01         0.01
  10413002                    0.30      0.30      1.76      0.09         0.09
  10414652                    0.01      0.01      0.39      0.01         0.01
  10414991                    3.56      3.63      3.56      4.18         3.56
  10415072                    0.01      1.09      0.01      1.08         0.01
  10415073                    0.88      0.88      2.57      0.01         0.01
  10417004                    2.98      2.98      3.33      2.26         2.27
  10417022                    1.19      1.90      1.19      2.45         1.19
  10417026                    0.83      1.46      0.86      1.77         0.83
  19000045                   14.17     14.18     14.39      6.05         5.81
  19000053                    0.01      0.01      0.01      0.61         0.01
  19000071                    0.01      0.01      0.01      0.01         0.01
  19000090                    0.01      0.01      2.51      0.01         0.01
  19000091                    5.68      6.74      5.68     10.98         5.68
  19000125                    1.99      1.99      2.47      0.01         0.01
  19000128                    4.44      4.51      4.44      5.84         4.44
  19000129                    4.33      4.33      4.46      4.04         4.02
  19000132                   14.57     14.57     16.19      0.01         0.01
  19000133                   14.11     14.11     15.85      0.01         0.01
  19000137                   14.38     14.39     14.46      9.55         9.24
  19000138                    1.22      1.22      1.25      0.03         0.04
  19000139                    1.16      1.16      1.21      0.03         0.03
  19000140                    1.10      1.10      1.15      0.04         0.03
  19000152                    0.01      0.01      0.01     60.33         0.01
  19000161                    0.97      0.98      1.04      0.06         0.03
  19000163                    0.97      0.97      0.98      0.05         0.03
  19000164                    0.97      0.97      0.97      0.67         0.65
  19000196                    4.10      4.10      4.57      0.01         0.01
  19000209                    1.06      1.28      1.06      1.84         1.06
  19000210                    1.28      1.35      1.28      1.81         1.28
  19000211                    1.35      1.44      1.35      1.80         1.35
  19000213                   16.37     16.37     17.35      0.01         0.01
  19000214                   14.46     14.46     15.34      0.02         0.31
  19000215                    0.96      0.98      1.00      1.02         0.83
  19000224                    3.78      3.80      3.78      4.83         3.78
  19000239                    0.88      1.06      0.88      1.86         0.88
  19000241                    0.01      0.79      0.01      1.81         0.01
  19000245                    0.01      0.01      0.01      1.26         0.01
  19000268                    4.25      4.46      4.25      4.76         4.25
  19000294                    3.78      3.78      4.05      0.01         0.01
  19000296                   16.69     16.69     17.25      0.01         0.01
  19000297                    0.01      3.04      0.01     10.88         0.01
  19000298                    0.01      0.01      0.01      2.53         0.01
  19000299                    1.21      1.22      1.31      0.82         0.68
  19000300                    1.41      1.43      1.64      0.74         0.65
  19000301                    1.61      1.64      1.93      0.75         0.66
  19000302                    1.79      1.93      3.22      0.70         0.51
  19000303                    3.20      3.22      4.88      0.66         0.47
  19000304                    5.04      5.09      5.87      2.08         1.91
  19000305                    5.09      5.09      5.68      0.01         0.01
  19000306                    5.68      5.68      5.93      0.01         0.03
  19000307                    6.00      6.00      6.51      5.42         5.41
  19000314                    3.04      3.04      3.16      0.79         0.48
  19000316                    4.03      4.08      4.05      4.17         3.47
  19000319                   15.85     15.85     16.69      0.01         0.01
  19000320                    5.85      5.87     14.18      1.95         1.78
  19000321                   17.25     17.25     17.92      0.01         0.01
  19000322                   17.35     17.35     18.12      0.85         0.73
  19000350                    4.51      4.57      4.51      5.84         4.51
  19000358                    3.40      4.25      3.41      5.13         3.40
  19000371                    1.44      1.45      1.44      1.45         1.41
  19000372                    1.45      1.48      1.45      1.69         1.44
  19000373                    0.01      0.01      0.01      1.23         0.01
  19000426                    5.41      6.29      5.41     11.63         5.41
  19000427                    4.87      5.41      4.87     12.35         4.87
  19000428                    4.58      5.51      4.58     10.19         4.58
  19000429                    3.94      4.70      3.94      8.70         3.94
  19000430                    2.64      4.11      2.64      9.09         2.64
  19000433                    0.81      0.88      0.81      1.57         0.81
  19000434                    1.17      1.21      1.22      0.98         0.81
  19000439                    4.23      4.23      4.39      0.01         0.01
  19000440                    0.80      0.81      0.80      1.29         0.80
  19000441                    3.63      3.63      3.99      0.01         0.01
  19000465                    4.42      4.46      4.44      4.39         4.32
  19000504                    0.03      0.03     14.90      0.01         0.01
  19000506                    1.04      1.05      1.09      0.06         0.03
  19000508                    4.39      4.39      4.65      0.01         0.01
  19000511                    0.01      0.01      1.64      0.01         0.01
  19000551                    1.85      1.92      1.85      2.51         1.85
  19000585                    1.91      1.91      1.98      1.77         1.77
  19000587                    2.07      2.07      6.21      0.01         0.01
  19000588                    6.21      6.21      9.39      0.01         0.01
  19000589                    4.45      4.54      4.45      4.91         4.42
  19000606                    4.17      4.45      4.17      5.70         4.17
  19000607                    4.07      4.17      4.08      4.66         3.99
  19000608                    2.55      4.08      2.55      5.66         2.55
  19000609                    1.89      2.55      1.90      5.41         1.89
  19000610                    4.83      4.94      4.83      6.82         4.83
  19000611                    1.30      1.31      1.43      0.80         0.68
  19000618                    0.01      0.01      0.29      0.01         0.01
  19000619                    0.01      0.42      0.01      1.53         0.01
  19000620                    0.42      0.61      0.42      1.31         0.42
  19000621                    0.61      0.72      0.61      1.39         0.61
  19000622                    0.72      0.81      0.72      1.39         0.72
  19000666                    1.54      1.58      1.54      1.78         1.54
  19000667                    1.48      1.48      1.57      0.82         0.81
  19000668                    1.27      1.28      1.29      0.10         0.04
  19000669                    1.25      1.26      1.27      0.07         0.04
  19000670                    1.27      1.27      1.45      0.01         0.01
  19000671                    1.46      1.47      1.48      1.41         1.36
  19000672                    1.38      1.39      1.40      1.41         1.36
  19000673                    1.39      1.40      1.39      1.46         1.39
  19000674                    1.47      1.50      1.47      1.73         1.47
  19000679                    1.50      1.54      1.50      1.79         1.50
  19000689                    0.01      0.01      0.01      0.01         0.01
  19000690                    0.01      0.01      0.01      1.85         0.01
  19000691                    4.07      4.14      4.08      4.94         3.90
  19000692                    4.54      4.65      4.54      5.20         4.53
  19000818                    0.01      0.01      0.01      0.63         0.01
  19000823                    0.01      0.01     15.26      0.01         0.01
  19001447                    0.01      0.01      0.01      2.85         0.01
  19001489                    0.01      9.39      0.01      7.82         0.01
  19001496                    0.01      0.01      0.01      5.83         0.01
  19001827                    0.01      0.01      7.22      0.01         0.01
  DRUMMOND_INFLOW             2.53      2.53      2.69      0.01         0.01
  LOW_LIFT_PS_WEST_INLET        0.29      0.32      0.29      0.45         0.29
  SIPHON_200                 33.56     33.56     71.56      0.01         0.01
  SIPHON_200A                64.28     64.28     71.64      0.01         0.01
  SIPHON_200B                71.62     71.62     71.68      3.71         0.01
  SIPHON_200C                71.60     71.60     71.62      0.01         0.01
  SIPHON_200D                71.53     71.53     71.60      0.01         0.01
  SIPHON_200E                10.78     10.78     71.53     50.15         0.01
  SIPHON_400                  5.82      5.82     23.86      0.01         0.01
  SIPHON_400A                23.86     23.86     46.82      0.01         0.01
  SIPHON_400B                46.75     46.75     46.82      3.57         0.01
  SIPHON_400C                46.71     46.71     46.75      0.01         0.01
  SIPHON_400D                 5.72      5.72     46.71      0.01         0.01
  SIPHON_600                  4.07      4.07     46.35      0.01         0.01
  SIPHON_600A                46.35     46.35     46.39      0.01         0.01
  SIPHON_600B                46.36     46.36     46.37      0.01         0.01
  SIPHON_600C                46.34     46.34     46.36      0.01         0.01
  SIPHON_600D                 0.01      0.01     46.34      0.01         0.01
  
  
  ***************
  Pumping Summary
  ***************
  
  ---------------------------------------------------------------------------------------------------------
                                                  Min       Avg       Max     Total     Power    % Time Off
                        Percent   Number of      Flow      Flow      Flow    Volume     Usage    Pump Curve
  Pump                 Utilized   Start-Ups       LPS       LPS       LPS  10^6 ltr     Kw-hr    Low   High
  ---------------------------------------------------------------------------------------------------------
  14000026_P1             99.80           2      0.00    341.00    750.00    88.187   4486.88    0.0   24.6
  14000030_P1             99.94           2      0.00     32.19    270.24     8.335    243.67    0.0    0.0
  14000073_P1            100.00           2      0.00     10.13     77.00     2.626     73.25    0.0    4.4
  14000101_P1            100.00           1      0.00     85.60    510.00    22.183   1140.01    0.0    1.9
  14000109_P1            100.00           1      0.00     23.11    465.00     5.989    504.89    0.0    2.4
  14000131_P1            100.00           1      0.00      9.26     70.00     2.400     24.57    0.0    4.1
  14000137_P1             99.91           2      0.00     73.83    443.00    19.114    810.16    0.0    5.7
  14000163_1              99.87           1      0.00    248.13   1000.00    64.218   2092.32    0.0    0.0
  14000169_P1             99.84           1      0.00     14.32    100.00     3.704    134.91    0.0    5.5
  19001331                99.66           2      0.00    656.06   1579.00   169.427   3967.81    0.0   15.7
  CENTRAL_HRT_INLET       99.87           1      0.00    296.42   1541.65    76.716   1066.53    0.0    0.0
  CENTRAL_HRT_TREATED_OVERFLOW    10.56           1      0.00    456.62    541.65    12.497     10.88    0.0    0.0
  CENTRAL_HRT_UNDERFLOW    99.87           1      0.00    248.13   1000.00    64.218    283.94    0.0   10.6
  

  Analysis begun on:  Wed Jan 02 08:26:54 2019
  Analysis ended on:  Wed Jan 02 08:31:10 2019
  Total elapsed time: 00:04:16