
  EPA STORM WATER MANAGEMENT MODEL - VERSION 5.1 (Build 5.1.012)
  --------------------------------------------------------------

  
  *********************************************************
  NOTE: The summary statistics displayed in this report are
  based on results found at every computational time step,  
  not just on results from each reporting time step.
  *********************************************************
  
  ****************
  Analysis Options
  ****************
  Flow Units ............... CFS
  Process Models:
    Rainfall/Runoff ........ NO
    RDII ................... NO
    Snowmelt ............... NO
    Groundwater ............ NO
    Flow Routing ........... YES
    Ponding Allowed ........ NO
    Water Quality .......... NO
  Flow Routing Method ...... DYNWAVE
  Starting Date ............ 01/01/2002 00:00:00
  Ending Date .............. 01/01/2002 12:00:00
  Antecedent Dry Days ...... 5.0
  Report Time Step ......... 00:05:00
  Routing Time Step ........ 10.00 sec
  Variable Time Step ....... YES
  Maximum Trials ........... 8
  Number of Threads ........ 1
  Head Tolerance ........... 0.005000 ft
  
  
  **************************        Volume        Volume
  Flow Routing Continuity        acre-feet      10^6 gal
  **************************     ---------     ---------
  Dry Weather Inflow .......         0.000         0.000
  Wet Weather Inflow .......         0.000         0.000
  Groundwater Inflow .......         0.000         0.000
  RDII Inflow ..............         0.000         0.000
  External Inflow ..........         1.157         0.377
  External Outflow .........        -0.333        -0.108
  Flooding Loss ............         0.796         0.259
  Evaporation Loss .........         0.000         0.000
  Exfiltration Loss ........         0.000         0.000
  Initial Stored Volume ....         0.045         0.015
  Final Stored Volume ......         0.721         0.235
  Continuity Error (%) .....         1.183
  
  
  *************************
  Highest Continuity Errors
  *************************
  Node 10 (77.50%)
  Node 20 (62.49%)
  Node 18 (49.79%)
  Node 12 (38.87%)
  Node 16 (34.39%)
  
  
  ***************************
  Time-Step Critical Elements
  ***************************
  None
  
  
  ********************************
  Highest Flow Instability Indexes
  ********************************
  All links are stable.
  
  
  *************************
  Routing Time Step Summary
  *************************
  Minimum Time Step           :    10.00 sec
  Average Time Step           :    10.00 sec
  Maximum Time Step           :    10.00 sec
  Percent in Steady State     :    -0.00
  Average Iterations per Step :     2.15
  Percent Not Converging      :     1.02
  
  
  ******************
  Node Depth Summary
  ******************
  
  ---------------------------------------------------------------------------------
                                 Average  Maximum  Maximum  Time of Max    Reported
                                   Depth    Depth      HGL   Occurrence   Max Depth
  Node                 Type         Feet     Feet     Feet  days hr:min        Feet
  ---------------------------------------------------------------------------------
  10                   JUNCTION     0.45     3.70     5.00     0  09:21        1.61
  12                   JUNCTION     0.93     2.95     4.05     0  09:21        2.30
  16                   JUNCTION     0.83     3.50     5.00     0  05:25        1.79
  18                   JUNCTION     0.56     2.60     4.00     0  09:31        1.49
  20                   JUNCTION     0.60     3.35     4.55     0  09:21        3.16
  22                   JUNCTION     1.40     4.24     5.24     0  02:37        1.98
  24                   JUNCTION     1.31     3.40     5.00     0  03:14        3.40
  36                   JUNCTION     1.99     3.20     5.00     0  01:38        3.20
  14                   OUTFALL      3.00     3.00     3.00     0  00:00        3.00
  
  
  *******************
  Node Inflow Summary
  *******************
  
  -------------------------------------------------------------------------------------------------
                                  Maximum  Maximum                  Lateral       Total        Flow
                                  Lateral    Total  Time of Max      Inflow      Inflow     Balance
                                   Inflow   Inflow   Occurrence      Volume      Volume       Error
  Node                 Type           CFS      CFS  days hr:min    10^6 gal    10^6 gal     Percent
  -------------------------------------------------------------------------------------------------
  10                   JUNCTION      0.00     0.49     0  08:01           0      0.0396     344.482
  12                   JUNCTION      0.00     0.42     0  02:44           0      0.0778      63.587
  16                   JUNCTION      0.00     0.61     0  04:34           0      0.0877      52.427
  18                   JUNCTION      0.00     0.50     0  06:30           0      0.0594      99.159
  20                   JUNCTION      0.00     0.31     0  07:05           0      0.0476     166.602
  22                   JUNCTION      0.00     0.59     0  01:46           0       0.108      39.409
  24                   JUNCTION      0.00     0.87     0  02:57           0       0.114      35.956
  36                   JUNCTION      3.00     3.00     0  03:00       0.377       0.381       4.113
  14                   OUTFALL       0.00     0.59     0  01:46           0       0.108       0.000
  
  
  **********************
  Node Surcharge Summary
  **********************
  
  Surcharging occurs when water rises above the top of the highest conduit.
  ---------------------------------------------------------------------
                                               Max. Height   Min. Depth
                                   Hours       Above Crown    Below Rim
  Node                 Type      Surcharged           Feet         Feet
  ---------------------------------------------------------------------
  10                   JUNCTION        2.70          2.700        0.000
  12                   JUNCTION        5.72          1.955        7.945
  16                   JUNCTION        5.48          2.500        0.000
  18                   JUNCTION        2.70          1.600        0.000
  20                   JUNCTION        2.93          2.352        0.448
  22                   JUNCTION        9.49          3.238        5.762
  24                   JUNCTION        6.31          2.400        0.000
  36                   JUNCTION        6.51          2.200        0.000
  
  
  *********************
  Node Flooding Summary
  *********************
  
  Flooding refers to all water that overflows a node, whether it ponds or not.
  --------------------------------------------------------------------------
                                                             Total   Maximum
                                 Maximum   Time of Max       Flood    Ponded
                        Hours       Rate    Occurrence      Volume     Depth
  Node                 Flooded       CFS   days hr:min    10^6 gal      Feet
  --------------------------------------------------------------------------
  10                      0.01      0.28      0  09:21       0.000     0.000
  16                      0.01      0.14      0  05:25       0.000     0.000
  18                      0.01      0.23      0  09:31       0.000     0.000
  24                      0.01      0.44      0  03:14       0.000     0.000
  36                      6.36      2.53      0  05:25       0.259     0.000
  
  
  ***********************
  Outfall Loading Summary
  ***********************
  
  -----------------------------------------------------------
                         Flow       Avg       Max       Total
                         Freq      Flow      Flow      Volume
  Outfall Node           Pcnt       CFS       CFS    10^6 gal
  -----------------------------------------------------------
  14                    99.98      0.34      0.59       0.108
  -----------------------------------------------------------
  System                99.98      0.34      0.59       0.108
  
  
  ********************
  Link Flow Summary
  ********************
  
  -----------------------------------------------------------------------------
                                 Maximum  Time of Max   Maximum    Max/    Max/
                                  |Flow|   Occurrence   |Veloc|    Full    Full
  Link                 Type          CFS  days hr:min    ft/sec    Flow   Depth
  -----------------------------------------------------------------------------
  11                   CONDUIT      0.22     0  09:15      0.31    1.40    1.00
  13                   CONDUIT      0.42     0  02:44      0.78    2.62    1.00
  17                   CONDUIT      0.50     0  06:30      0.87    3.14    1.00
  19                   CONDUIT      0.36     0  08:02      0.56    2.29    1.00
  21                   CONDUIT      0.31     0  07:05      0.49    1.96    1.00
  23                   CONDUIT      0.59     0  01:46      0.91    1.18    1.00
  25                   CONDUIT      0.61     0  04:34      1.03    3.80    1.00
  43                   CONDUIT      0.87     0  02:57      1.24    3.85    1.00
  
  
  ***************************
  Flow Classification Summary
  ***************************
  
  -------------------------------------------------------------------------------------
                      Adjusted    ---------- Fraction of Time in Flow Class ---------- 
                       /Actual         Up    Down  Sub   Sup   Up    Down  Norm  Inlet 
  Conduit               Length    Dry  Dry   Dry   Crit  Crit  Crit  Crit  Ltd   Ctrl  
  -------------------------------------------------------------------------------------
  11                      1.00   0.16  0.16  0.00  0.68  0.00  0.00  0.00  0.02  0.00
  13                      1.00   0.00  0.02  0.00  0.98  0.00  0.00  0.00  0.00  0.00
  17                      1.00   0.11  0.00  0.00  0.89  0.00  0.00  0.00  0.00  0.00
  19                      1.00   0.18  0.00  0.00  0.82  0.00  0.00  0.00  0.00  0.00
  21                      1.00   0.02  0.13  0.00  0.85  0.00  0.00  0.00  0.00  0.00
  23                      1.00   0.00  0.00  0.00  1.00  0.00  0.00  0.00  0.00  0.00
  25                      1.00   0.08  0.00  0.00  0.92  0.00  0.00  0.00  0.00  0.00
  43                      1.00   0.08  0.00  0.00  0.92  0.00  0.00  0.00  0.00  0.00
  
  
  *************************
  Conduit Surcharge Summary
  *************************
  
  ----------------------------------------------------------------------------
                                                           Hours        Hours 
                         --------- Hours Full --------   Above Full   Capacity
  Conduit                Both Ends  Upstream  Dnstream   Normal Flow   Limited
  ----------------------------------------------------------------------------
  11                          2.70      2.70      2.93      0.34         0.02
  13                          5.71      5.71      9.49      7.55         0.02
  17                          2.49      5.48      2.70      4.86         0.19
  19                          2.52      2.70      2.70      2.67         0.01
  21                          2.93      2.93      5.71      4.89         0.02
  23                          9.49      9.49     12.00      1.76         0.01
  25                          4.18      6.31      5.48      6.21         3.09
  43                          4.91      6.50      6.31      6.49         4.78
  

  Analysis begun on:  Wed Jan 02 04:45:00 2019
  Analysis ended on:  Wed Jan 02 04:45:00 2019
  Total elapsed time: < 1 sec