
  EPA STORM WATER MANAGEMENT MODEL - VERSION 5.1 (Build 5.1.012)
  --------------------------------------------------------------

  Scenario Run :  30DEGREETEMP SW 1 0 20 
  
  
  *************
  Element Count
  *************
  Number of rain gages ...... 0
  Number of subcatchments ... 0
  Number of nodes ........... 10
  Number of links ........... 9
  Number of pollutants ...... 1
  Number of land uses ....... 0
  
  
  *****************
  Pollutant Summary
  *****************
                               Ppt.      GW         Kdecay
  Name                 Units   Concen.   Concen.    1/days    CoPollutant
  -----------------------------------------------------------------------
  BOD5                  MG/L      0.00      0.00      0.00
  
  
  ************
  Node Summary
  ************
                                           Invert      Max.    Ponded    External
  Name                 Type                 Elev.     Depth      Area    Inflow  
  -------------------------------------------------------------------------------
  10309                JUNCTION            101.60      9.40       0.0
  15009                JUNCTION            111.50     13.50       0.0
  16009                JUNCTION            102.00     18.00       0.0
  16109                JUNCTION            102.80     22.20       0.0
  80408                JUNCTION            124.60     13.40       0.0    Yes
  80608                JUNCTION            118.30     16.70       0.0
  81009                JUNCTION            128.20      8.80       0.0    Yes
  81309                JUNCTION            117.50     12.50       0.0
  82309                JUNCTION            112.30     42.70       0.0    Yes
  10208                OUTFALL              89.90      9.00       0.0
  
  
  ************
  Link Summary
  ************
  Name             From Node        To Node          Type            Length    %Slope Roughness
  ---------------------------------------------------------------------------------------------
  1030             10309            10208            CONDUIT         4500.0    0.2600    0.0160
  1570             15009            16009            CONDUIT         5000.0    0.1900    0.0154
  1600             16009            16109            CONDUIT          500.0   -0.1600    0.0150
  1602             82309            16109            CONDUIT         5000.0    0.1900    0.0340
  1630             16009            10309            CONDUIT          300.0    0.1333    0.0150
  8040             80408            80608            CONDUIT         1800.0    0.3500    0.0150
  8060             80608            82309            CONDUIT         2075.0    0.1831    0.0150
  8100             81009            81309            CONDUIT         5100.0    0.2098    0.0150
  8130             81309            15009            CONDUIT         3500.0    0.1714    0.0150
  
  
  *********************
  Cross Section Summary
  *********************
                                        Full     Full     Hyd.     Max.   No. of     Full
  Conduit          Shape               Depth     Area     Rad.    Width  Barrels     Flow
  ---------------------------------------------------------------------------------------
  1030             TRIANGULAR           9.00   243.00     4.27    54.00        1  3028.41
  1570             CIRCULAR             5.50    23.76     1.38     5.50        1   123.56
  1600             CIRCULAR             6.00    28.27     1.50     6.00        1   146.82
  1602             CIRCULAR             5.00    19.63     1.25     5.00        1    43.41
  1630             TRIANGULAR           9.00   243.00     4.27    54.00        1  2313.27
  8040             CIRCULAR             4.00    12.57     1.00     4.00        1    73.65
  8060             CIRCULAR             4.00    12.57     1.00     4.00        1    53.27
  8100             CIRCULAR             4.50    15.90     1.13     4.50        1    78.06
  8130             CIRCULAR             4.50    15.90     1.13     4.50        1    70.56
  
  
  
  *********************************************************
  NOTE: The summary statistics displayed in this report are
  based on results found at every computational time step,  
  not just on results from each reporting time step.
  *********************************************************
  
  ****************
  Analysis Options
  ****************
  Flow Units ............... CFS
  Process Models:
    Rainfall/Runoff ........ NO
    RDII ................... NO
    Snowmelt ............... NO
    Groundwater ............ NO
    Flow Routing ........... YES
    Ponding Allowed ........ NO
    Water Quality .......... YES
  Flow Routing Method ...... DYNWAVE
  Starting Date ............ 02/22/2002 00:00:00
  Ending Date .............. 02/22/2002 11:00:00
  Antecedent Dry Days ...... 0.0
  Report Time Step ......... 00:01:00
  Routing Time Step ........ 30.00 sec
  Variable Time Step ....... YES
  Maximum Trials ........... 8
  Number of Threads ........ 1
  Head Tolerance ........... 0.005000 ft
  
  
  **************************        Volume        Volume
  Flow Routing Continuity        acre-feet      10^6 gal
  **************************     ---------     ---------
  Dry Weather Inflow .......        90.868        29.611
  Wet Weather Inflow .......         0.000         0.000
  Groundwater Inflow .......         0.000         0.000
  RDII Inflow ..............         0.000         0.000
  External Inflow ..........         8.670         2.825
  External Outflow .........        88.754        28.922
  Flooding Loss ............         1.403         0.457
  Evaporation Loss .........         0.006         0.002
  Exfiltration Loss ........         0.000         0.000
  Initial Stored Volume ....         0.000         0.000
  Final Stored Volume ......        10.247         3.339
  Continuity Error (%) .....        -0.875
  
  
  **************************          BOD5
  Quality Routing Continuity           lbs
  **************************    ----------
  Dry Weather Inflow .......         0.000
  Wet Weather Inflow .......         0.000
  Groundwater Inflow .......         0.000
  RDII Inflow ..............         0.000
  External Inflow ..........      2354.092
  External Outflow .........      1747.640
  Flooding Loss ............       380.571
  Exfiltration Loss ........         0.000
  Mass Reacted .............         0.000
  Initial Stored Mass ......         0.000
  Final Stored Mass ........       296.695
  Continuity Error (%) .....        -3.008
  
  
  *************************
  Highest Continuity Errors
  *************************
  Node 80608 (6.86%)
  Node 81309 (3.51%)
  Node 82309 (3.27%)
  Node 15009 (2.96%)
  Node 10309 (1.58%)
  
  
  ***************************
  Time-Step Critical Elements
  ***************************
  Link 1630 (51.97%)
  Link 1600 (11.92%)
  
  
  ********************************
  Highest Flow Instability Indexes
  ********************************
  Link 8060 (5)
  Link 8040 (3)
  Link 1602 (2)
  
  
  *************************
  Routing Time Step Summary
  *************************
  Minimum Time Step           :    12.59 sec
  Average Time Step           :    23.96 sec
  Maximum Time Step           :    30.00 sec
  Percent in Steady State     :     0.00
  Average Iterations per Step :     2.64
  Percent Not Converging      :     2.72
  
  
  ******************
  Node Depth Summary
  ******************
  
  ---------------------------------------------------------------------------------
                                 Average  Maximum  Maximum  Time of Max    Reported
                                   Depth    Depth      HGL   Occurrence   Max Depth
  Node                 Type         Feet     Feet     Feet  days hr:min        Feet
  ---------------------------------------------------------------------------------
  10309                JUNCTION     2.50     2.96   104.56     0  11:00        2.96
  15009                JUNCTION     2.37     3.09   114.59     0  11:00        3.09
  16009                JUNCTION     2.70     3.17   105.17     0  11:00        3.17
  16109                JUNCTION     2.59     3.06   105.86     0  11:00        3.06
  80408                JUNCTION     5.46    10.71   135.31     0  08:01       10.71
  80608                JUNCTION     9.60    16.70   135.00     0  08:00       16.70
  81009                JUNCTION     2.72     3.54   131.74     0  11:00        3.54
  81309                JUNCTION     3.08     4.23   121.73     0  11:00        4.23
  82309                JUNCTION    14.89    23.75   136.05     0  10:00       22.84
  10208                OUTFALL      2.28     2.74    92.64     0  11:00        2.74
  
  
  *******************
  Node Inflow Summary
  *******************
  
  -------------------------------------------------------------------------------------------------
                                  Maximum  Maximum                  Lateral       Total        Flow
                                  Lateral    Total  Time of Max      Inflow      Inflow     Balance
                                   Inflow   Inflow   Occurrence      Volume      Volume       Error
  Node                 Type           CFS      CFS  days hr:min    10^6 gal    10^6 gal     Percent
  -------------------------------------------------------------------------------------------------
  10309                JUNCTION      0.00   149.32     0  11:00           0        29.4       1.601
  15009                JUNCTION      0.00    74.98     0  11:00           0          14       3.050
  16009                JUNCTION      0.00   149.37     0  11:00           0        29.7       1.098
  16109                JUNCTION      0.00    75.26     0  10:00           0        16.3       0.000
  80408                JUNCTION     10.00    10.00     0  01:00        2.83        2.83       2.921
  80608                JUNCTION      0.00    10.54     0  10:08           0        2.76       7.363
  81009                JUNCTION     75.00    75.00     0  10:00        14.8        14.8       1.671
  81309                JUNCTION      0.00    75.00     0  11:00           0        14.6       3.642
  82309                JUNCTION     75.00    75.36     0  10:00        14.8        16.9       3.384
  10208                OUTFALL       0.00   149.14     0  11:00           0        28.9       0.000
  
  
  **********************
  Node Surcharge Summary
  **********************
  
  Surcharging occurs when water rises above the top of the highest conduit.
  ---------------------------------------------------------------------
                                               Max. Height   Min. Depth
                                   Hours       Above Crown    Below Rim
  Node                 Type      Surcharged           Feet         Feet
  ---------------------------------------------------------------------
  80408                JUNCTION        4.47          6.712        2.688
  80608                JUNCTION        6.12         12.700        0.000
  82309                JUNCTION        7.56         17.546       18.954
  
  
  *********************
  Node Flooding Summary
  *********************
  
  Flooding refers to all water that overflows a node, whether it ponds or not.
  --------------------------------------------------------------------------
                                                             Total   Maximum
                                 Maximum   Time of Max       Flood    Ponded
                        Hours       Rate    Occurrence      Volume     Depth
  Node                 Flooded       CFS   days hr:min    10^6 gal      Feet
  --------------------------------------------------------------------------
  80608                   2.99     10.54      0  10:08       0.458     0.000
  
  
  ***********************
  Outfall Loading Summary
  ***********************
  
  -------------------------------------------------------------------------
                         Flow       Avg       Max       Total         Total
                         Freq      Flow      Flow      Volume          BOD5
  Outfall Node           Pcnt       CFS       CFS    10^6 gal           lbs
  -------------------------------------------------------------------------
  10208                 96.79    108.60    149.14      28.920      1747.970
  -------------------------------------------------------------------------
  System                96.79    108.60    149.14      28.920      1747.970
  
  
  ********************
  Link Flow Summary
  ********************
  
  -----------------------------------------------------------------------------
                                 Maximum  Time of Max   Maximum    Max/    Max/
                                  |Flow|   Occurrence   |Veloc|    Full    Full
  Link                 Type          CFS  days hr:min    ft/sec    Flow   Depth
  -----------------------------------------------------------------------------
  1030                 CONDUIT    149.14     0  11:00      6.12    0.05    0.32
  1570                 CONDUIT     74.84     0  11:00      5.36    0.61    0.57
  1600                 CONDUIT     74.53     0  11:00      5.15    0.51    0.52
  1602                 CONDUIT     75.26     0  10:00      4.44    1.73    0.81
  1630                 CONDUIT    149.32     0  11:00      5.30    0.06    0.34
  8040                 CONDUIT     10.07     0  07:02      3.80    0.14    1.00
  8060                 CONDUIT     10.13     0  07:02      2.15    0.19    1.00
  8100                 CONDUIT     75.00     0  11:00      5.65    0.96    0.86
  8130                 CONDUIT     74.98     0  11:00      5.42    1.06    0.81
  
  
  ***************************
  Flow Classification Summary
  ***************************
  
  -------------------------------------------------------------------------------------
                      Adjusted    ---------- Fraction of Time in Flow Class ---------- 
                       /Actual         Up    Down  Sub   Sup   Up    Down  Norm  Inlet 
  Conduit               Length    Dry  Dry   Dry   Crit  Crit  Crit  Crit  Ltd   Ctrl  
  -------------------------------------------------------------------------------------
  1030                    1.00   0.01  0.00  0.00  0.99  0.00  0.00  0.00  0.00  0.00
  1570                    1.00   0.00  0.00  0.00  1.00  0.00  0.00  0.00  0.96  0.00
  1600                    1.00   0.00  0.00  0.00  0.99  0.01  0.00  0.00  0.03  0.00
  1602                    1.00   0.00  0.00  0.00  1.00  0.00  0.00  0.00  0.00  0.00
  1630                    1.00   0.00  0.00  0.00  0.99  0.01  0.00  0.00  0.00  0.00
  8040                    1.00   0.00  0.00  0.00  0.97  0.03  0.00  0.00  0.39  0.00
  8060                    1.00   0.00  0.00  0.00  0.98  0.00  0.00  0.02  0.29  0.00
  8100                    1.00   0.00  0.00  0.00  0.98  0.02  0.00  0.00  0.94  0.00
  8130                    1.00   0.00  0.00  0.00  0.99  0.01  0.00  0.00  0.00  0.00
  
  
  *************************
  Conduit Surcharge Summary
  *************************
  
  ----------------------------------------------------------------------------
                                                           Hours        Hours 
                         --------- Hours Full --------   Above Full   Capacity
  Conduit                Both Ends  Upstream  Dnstream   Normal Flow   Limited
  ----------------------------------------------------------------------------
  1602                        0.01      8.75      0.01      8.22         0.01
  8040                        4.47      4.47      6.12      0.01         0.01
  8060                        6.12      6.12      7.56      0.01         0.01
  8130                        0.01      0.01      0.01      0.89         0.01
  
  
  ***************************
  Link Pollutant Load Summary
  ***************************
  
  ----------------------------------
                                BOD5
  Link                           lbs
  ----------------------------------
  1030                      1747.970
  1570                         0.000
  1600                      1737.400
  1602                      1753.831
  1630                      1727.014
  8040                      2288.189
  8060                      1770.740
  8100                         0.000
  8130                         0.000
  

  Analysis begun on:  Wed Jan 02 08:31:11 2019
  Analysis ended on:  Wed Jan 02 08:31:11 2019
  Total elapsed time: < 1 sec