
  EPA STORM WATER MANAGEMENT MODEL - VERSION 5.1 (Build 5.1.012)
  --------------------------------------------------------------

  WARNING 04: minimum elevation drop used for Conduit 13
  WARNING 04: minimum elevation drop used for Conduit 23
  WARNING 04: minimum elevation drop used for Conduit 31
  WARNING 04: minimum elevation drop used for Conduit 33
  WARNING 04: minimum elevation drop used for Conduit 43
  WARNING 02: maximum depth increased for Node 24
  
  *********************************************************
  NOTE: The summary statistics displayed in this report are
  based on results found at every computational time step,  
  not just on results from each reporting time step.
  *********************************************************
  
  ****************
  Analysis Options
  ****************
  Flow Units ............... CFS
  Process Models:
    Rainfall/Runoff ........ NO
    RDII ................... NO
    Snowmelt ............... NO
    Groundwater ............ NO
    Flow Routing ........... YES
    Ponding Allowed ........ NO
    Water Quality .......... NO
  Flow Routing Method ...... DYNWAVE
  Starting Date ............ 01/01/2002 00:00:00
  Ending Date .............. 01/01/2002 00:00:00
  Antecedent Dry Days ...... 5.0
  Report Time Step ......... 00:05:00
  Routing Time Step ........ 300.00 sec
  Variable Time Step ....... YES
  Maximum Trials ........... 8
  Number of Threads ........ 1
  Head Tolerance ........... 0.005000 ft
  
  
  **************************        Volume        Volume
  Flow Routing Continuity        acre-feet      10^6 gal
  **************************     ---------     ---------
  Dry Weather Inflow .......        15.867         5.171
  Wet Weather Inflow .......         0.000         0.000
  Groundwater Inflow .......         0.000         0.000
  RDII Inflow ..............         0.000         0.000
  External Inflow ..........         0.000         0.000
  External Outflow .........        23.571         7.681
  Flooding Loss ............         0.053         0.017
  Evaporation Loss .........         0.000         0.000
  Exfiltration Loss ........         0.000         0.000
  Initial Stored Volume ....         0.012         0.004
  Final Stored Volume ......         0.017         0.005
  Continuity Error (%) .....       -48.878
  
  
  *************************
  Highest Continuity Errors
  *************************
  Node 8000 (-265.76%)
  Node 40 (-79.57%)
  Node 26 (-14.81%)
  Node 30 (-7.58%)
  Node 24 (6.66%)
  
  
  ***************************
  Time-Step Critical Elements
  ***************************
  Link 25 (77.92%)
  Link 13 (9.64%)
  Link 21 (8.53%)
  Link 43 (1.74%)
  Node 40 (1.60%)
  
  
  ********************************
  Highest Flow Instability Indexes
  ********************************
  Link 43 (91)
  Link 25 (86)
  Link 5000 (86)
  Link 5004 (84)
  Link 45 (83)
  
  
  *************************
  Routing Time Step Summary
  *************************
  Minimum Time Step           :     0.50 sec
  Average Time Step           :     5.60 sec
  Maximum Time Step           :     8.29 sec
  Percent in Steady State     :     0.00
  Average Iterations per Step :     8.00
  Percent Not Converging      :    99.97
  
  
  ******************
  Node Depth Summary
  ******************
  
  ---------------------------------------------------------------------------------
                                 Average  Maximum  Maximum  Time of Max    Reported
                                   Depth    Depth      HGL   Occurrence   Max Depth
  Node                 Type         Feet     Feet     Feet  days hr:min        Feet
  ---------------------------------------------------------------------------------
  10                   JUNCTION    16.79    33.82    23.82     0  00:00       19.29
  12                   JUNCTION     2.11     4.44     4.44     0  15:13        4.09
  16                   JUNCTION     7.58    28.44    28.44     0  00:00       11.91
  18                   JUNCTION    12.10    31.86    26.86     0  00:00       15.44
  20                   JUNCTION     0.37     0.65     5.65     0  00:00        0.49
  22                   JUNCTION     1.58     3.06     3.06     0  15:05        2.69
  26                   JUNCTION     1.58    14.87    14.87     0  00:00        3.84
  30                   JUNCTION     1.58    10.56    10.56     0  00:00        3.19
  36                   JUNCTION     0.50     1.16     2.16     0  15:04        0.94
  40                   JUNCTION   243.23  1005.00  1005.00     0  00:00      918.21
  14                   OUTFALL      0.73     0.90     0.90     0  15:14        0.86
  24                   DIVIDER      0.56     0.94     0.94     0  15:05        0.93
  8000                 STORAGE      0.00     1.00    -4.00     0  00:00        0.00
  8002                 STORAGE      0.00     0.98    -4.02     0  00:00        0.05
  9000                 STORAGE      0.00     0.99    -4.01     0  00:00        0.02
  
  
  *******************
  Node Inflow Summary
  *******************
  
  -------------------------------------------------------------------------------------------------
                                  Maximum  Maximum                  Lateral       Total        Flow
                                  Lateral    Total  Time of Max      Inflow      Inflow     Balance
                                   Inflow   Inflow   Occurrence      Volume      Volume       Error
  Node                 Type           CFS      CFS  days hr:min    10^6 gal    10^6 gal     Percent
  -------------------------------------------------------------------------------------------------
  10                   JUNCTION      0.00     7.57     0  00:00           0        7.56      -1.149
  12                   JUNCTION      0.00     6.39     0  00:00           0        7.64      -0.041
  16                   JUNCTION      0.00     5.00     0  00:00           0        7.37       0.745
  18                   JUNCTION      0.00     7.49     0  00:00           0        7.32      -3.208
  20                   JUNCTION      0.00     8.61     0  00:00           0        7.65       0.155
  22                   JUNCTION      0.00     4.94     0  00:00           0        7.75      -0.284
  26                   JUNCTION      0.00     5.00     0  00:00           0      0.0401     -12.903
  30                   JUNCTION      0.00     5.19     0  00:00           0       0.135      -7.045
  36                   JUNCTION      2.00     2.00     0  00:03        5.17        5.17      17.518
  40                   JUNCTION      0.00    11.00     0  00:00           0        4.41     -44.310
  14                   OUTFALL       0.00     4.80     0  15:14           0        7.68       0.000
  24                   DIVIDER       0.00     8.17     0  00:00           0         7.9       7.140
  8000                 STORAGE       0.00     0.00     0  00:00           0    0.000587     -72.659
  8002                 STORAGE       0.00    12.04     0  02:57           0         4.4      -0.153
  9000                 STORAGE       0.00     5.68     0  00:00           0        7.37      -0.032
  
  
  **********************
  Node Surcharge Summary
  **********************
  
  Surcharging occurs when water rises above the top of the highest conduit.
  ---------------------------------------------------------------------
                                               Max. Height   Min. Depth
                                   Hours       Above Crown    Below Rim
  Node                 Type      Surcharged           Feet         Feet
  ---------------------------------------------------------------------
  10                   JUNCTION       95.99         32.817        0.000
  12                   JUNCTION       94.52          3.441        7.559
  16                   JUNCTION       95.99         27.445        0.000
  18                   JUNCTION       95.99         30.856        0.000
  22                   JUNCTION       82.40          2.056        7.944
  26                   JUNCTION       78.25         13.871        0.000
  30                   JUNCTION       80.61          9.555        0.000
  40                   JUNCTION       94.70       1004.750        0.000
  
  
  *********************
  Node Flooding Summary
  *********************
  
  Flooding refers to all water that overflows a node, whether it ponds or not.
  --------------------------------------------------------------------------
                                                             Total   Maximum
                                 Maximum   Time of Max       Flood    Ponded
                        Hours       Rate    Occurrence      Volume     Depth
  Node                 Flooded       CFS   days hr:min    10^6 gal      Feet
  --------------------------------------------------------------------------
  40                      0.32      9.83      0  00:00       0.018  1000.000
  
  
  **********************
  Storage Volume Summary
  **********************
  
  --------------------------------------------------------------------------------------------------
                         Average     Avg  Evap Exfil       Maximum     Max    Time of Max    Maximum
                          Volume    Pcnt  Pcnt  Pcnt        Volume    Pcnt     Occurrence    Outflow
  Storage Unit          1000 ft3    Full  Loss  Loss      1000 ft3    Full    days hr:min        CFS
  --------------------------------------------------------------------------------------------------
  8000                     0.000       0     0     0         0.078      10       0  00:00       5.00
  8002                     0.000       0     0     0         0.077      10       0  00:00      11.00
  9000                     0.000       0     0     0         0.078      10       0  00:00       5.00
  
  
  ***********************
  Outfall Loading Summary
  ***********************
  
  -----------------------------------------------------------
                         Flow       Avg       Max       Total
                         Freq      Flow      Flow      Volume
  Outfall Node           Pcnt       CFS       CFS    10^6 gal
  -----------------------------------------------------------
  14                    99.95      2.95      4.80       7.680
  -----------------------------------------------------------
  System                99.95      2.95      4.80       7.680
  
  
  ********************
  Link Flow Summary
  ********************
  
  -----------------------------------------------------------------------------
                                 Maximum  Time of Max   Maximum    Max/    Max/
                                  |Flow|   Occurrence   |Veloc|    Full    Full
  Link                 Type          CFS  days hr:min    ft/sec    Flow   Depth
  -----------------------------------------------------------------------------
  11                   CONDUIT      8.61     0  00:00     14.81    0.48    0.83
  13                   CONDUIT      4.78     0  15:05      6.08   43.46    1.00
  17                   CONDUIT      6.52     0  00:00     14.54    0.56    1.00
  19                   CONDUIT      7.57     0  00:00     16.61    0.56    1.00
  21                   CONDUIT      6.34     0  00:00     15.03    0.61    0.77
  23                   CONDUIT      4.80     0  15:14      6.22   43.61    0.95
  25                   CONDUIT      5.68     0  00:00     12.27    0.53    0.59
  31                   CONDUIT      5.19     0  00:00     11.79   58.07    1.00
  33                   CONDUIT      4.94     0  00:00      9.88   63.17    1.00
  35                   CONDUIT      0.00     0  00:00      0.00    0.00    0.10
  43                   CONDUIT      8.17     0  00:00    >50.00  2667.65    1.00
  45                   CONDUIT     12.04     0  02:57    >50.00    0.05    0.18
  5000                 PUMP         5.00     0  00:00              1.00
  5002                 PUMP         5.00     0  00:00              1.00
  5004                 PUMP        11.00     0  00:00              1.00
  
  
  ***************************
  Flow Classification Summary
  ***************************
  
  -------------------------------------------------------------------------------------
                      Adjusted    ---------- Fraction of Time in Flow Class ---------- 
                       /Actual         Up    Down  Sub   Sup   Up    Down  Norm  Inlet 
  Conduit               Length    Dry  Dry   Dry   Crit  Crit  Crit  Crit  Ltd   Ctrl  
  -------------------------------------------------------------------------------------
  11                      1.00   0.00  0.00  0.00  0.29  0.71  0.00  0.00  0.00  0.00
  13                      1.00   0.00  0.00  0.00  1.00  0.00  0.00  0.00  0.00  0.00
  17                      1.00   0.00  0.00  0.00  1.00  0.00  0.00  0.00  0.00  0.00
  19                      1.00   0.00  0.00  0.00  1.00  0.00  0.00  0.00  0.00  0.00
  21                      1.00   0.00  0.00  0.00  0.30  0.70  0.00  0.00  1.00  0.00
  23                      1.00   0.00  0.00  0.00  1.00  0.00  0.00  0.00  0.00  0.00
  25                      1.00   0.00  0.00  0.00  0.00  1.00  0.00  0.00  0.00  0.00
  31                      1.00   0.00  0.00  0.00  1.00  0.00  0.00  0.00  0.00  0.00
  33                      1.00   0.00  0.00  0.00  1.00  0.00  0.00  0.00  0.04  0.00
  35                      1.00   1.00  0.00  0.00  0.00  0.00  0.00  0.00  0.00  0.00
  43                      1.00   0.00  0.00  0.00  0.98  0.02  0.00  0.00  0.11  0.00
  45                      1.00   0.01  0.00  0.00  0.28  0.71  0.00  0.00  0.00  0.00
  
  
  *************************
  Conduit Surcharge Summary
  *************************
  
  ----------------------------------------------------------------------------
                                                           Hours        Hours 
                         --------- Hours Full --------   Above Full   Capacity
  Conduit                Both Ends  Upstream  Dnstream   Normal Flow   Limited
  ----------------------------------------------------------------------------
  11                          0.01      0.01     95.99      0.01         0.01
  13                         80.55     94.05     80.74     95.98        79.64
  17                         95.99     95.99     95.99      0.01         0.01
  19                         95.99     95.99     95.99      0.01         0.01
  21                          0.01      0.01     94.16      0.01         0.01
  23                          0.01     80.82      0.01     95.99         0.01
  31                         75.57     76.94     79.15      4.51        42.51
  33                         76.17     78.88     80.77     32.67        42.18
  43                         84.23     85.29     94.70     95.29        76.49
  
  
  ***************
  Pumping Summary
  ***************
  
  ---------------------------------------------------------------------------------------------------------
                                                  Min       Avg       Max     Total     Power    % Time Off
                        Percent   Number of      Flow      Flow      Flow    Volume     Usage    Pump Curve
  Pump                 Utilized   Start-Ups       CFS       CFS       CFS  10^6 gal     Kw-hr    Low   High
  ---------------------------------------------------------------------------------------------------------
  5000                   100.00           1      0.00      2.84      5.00     7.387    299.78    0.0    0.0
  5002                     0.02           1      0.00      4.78      5.00     0.002      0.06    0.0    0.0
  5004                    49.46       13233      0.00      3.34     11.00     4.362   6764.13    0.0    0.0
  

  Analysis begun on:  Wed Jan 02 04:45:00 2019
  Analysis ended on:  Wed Jan 02 04:45:04 2019
  Total elapsed time: 00:00:04