
  EPA STORM WATER MANAGEMENT MODEL - VERSION 5.1 (Build 5.1.012)
  --------------------------------------------------------------

  WARNING 04: minimum elevation drop used for Conduit 2
  WARNING 02: maximum depth increased for Node N2
  WARNING 02: maximum depth increased for Node N4
  
  *********************************************************
  NOTE: The summary statistics displayed in this report are
  based on results found at every computational time step,  
  not just on results from each reporting time step.
  *********************************************************
  
  ****************
  Analysis Options
  ****************
  Flow Units ............... GPM
  Process Models:
    Rainfall/Runoff ........ NO
    RDII ................... NO
    Snowmelt ............... NO
    Groundwater ............ NO
    Flow Routing ........... YES
    Ponding Allowed ........ YES
    Water Quality .......... NO
  Flow Routing Method ...... DYNWAVE
  Starting Date ............ 01/01/2002 00:00:00
  Ending Date .............. 01/01/2002 23:00:00
  Antecedent Dry Days ...... 5.0
  Report Time Step ......... 00:01:00
  Routing Time Step ........ 5.00 sec
  Variable Time Step ....... YES
  Maximum Trials ........... 4
  Number of Threads ........ 1
  Head Tolerance ........... 0.005000 ft
  
  
  **************************        Volume        Volume
  Flow Routing Continuity        acre-feet      10^6 gal
  **************************     ---------     ---------
  Dry Weather Inflow .......         0.000         0.000
  Wet Weather Inflow .......         0.000         0.000
  Groundwater Inflow .......         0.000         0.000
  RDII Inflow ..............         0.000         0.000
  External Inflow ..........        16.940         5.520
  External Outflow .........        16.742         5.456
  Flooding Loss ............         0.006         0.002
  Evaporation Loss .........         0.000         0.000
  Exfiltration Loss ........         0.000         0.000
  Initial Stored Volume ....         0.001         0.000
  Final Stored Volume ......         0.185         0.060
  Continuity Error (%) .....         0.053
  
  
  ***************************
  Time-Step Critical Elements
  ***************************
  None
  
  
  ********************************
  Highest Flow Instability Indexes
  ********************************
  Link 3 (148)
  Link WEIR-11 (148)
  Link 4 (133)
  Link 1 (132)
  Link 5 (21)
  
  
  *************************
  Routing Time Step Summary
  *************************
  Minimum Time Step           :     0.21 sec
  Average Time Step           :     5.00 sec
  Maximum Time Step           :     5.00 sec
  Percent in Steady State     :     0.00
  Average Iterations per Step :     2.83
  Percent Not Converging      :     6.32
  
  
  ******************
  Node Depth Summary
  ******************
  
  ---------------------------------------------------------------------------------
                                 Average  Maximum  Maximum  Time of Max    Reported
                                   Depth    Depth      HGL   Occurrence   Max Depth
  Node                 Type         Feet     Feet     Feet  days hr:min        Feet
  ---------------------------------------------------------------------------------
  N1                   JUNCTION     5.62    15.98  5883.85     0  00:00        6.74
  N2                   JUNCTION     4.54     4.69  5870.43     0  00:13        4.59
  N3                   JUNCTION     6.24     6.35  5870.22     0  00:13        6.29
  N4                   JUNCTION     6.31    11.76  5873.76     0  00:00        6.35
  N5                   JUNCTION     4.86     5.98  5873.85     0  00:14        5.98
  OFALL-10             OUTFALL      7.23     7.23  5868.23     0  00:00        7.23
  STOR-10              STORAGE      4.25     4.30  5870.04     0  00:15        4.29
  STOR-12              STORAGE      3.57     3.75  5869.49     0  00:16        3.73
  
  
  *******************
  Node Inflow Summary
  *******************
  
  -------------------------------------------------------------------------------------------------
                                  Maximum  Maximum                  Lateral       Total        Flow
                                  Lateral    Total  Time of Max      Inflow      Inflow     Balance
                                   Inflow   Inflow   Occurrence      Volume      Volume       Error
  Node                 Type           GPM      GPM  days hr:min    10^6 gal    10^6 gal     Percent
  -------------------------------------------------------------------------------------------------
  N1                   JUNCTION   4000.00  4000.00     0  00:00        5.52        5.52       0.020
  N2                   JUNCTION      0.00  4150.53     0  00:15           0        5.49       0.503
  N3                   JUNCTION      0.00  4159.36     0  00:15           0        5.47      -0.034
  N4                   JUNCTION      0.00 22686.93     0  00:00           0        5.48       0.078
  N5                   JUNCTION      0.00  4175.71     0  00:00           0        5.52       0.444
  OFALL-10             OUTFALL       0.00 22686.93     0  00:00           0        5.48       0.000
  STOR-10              STORAGE       0.00  4191.24     0  00:15           0        5.47       0.029
  STOR-12              STORAGE       0.00  4715.39     0  00:01           0        5.47       0.081
  
  
  **********************
  Node Surcharge Summary
  **********************
  
  Surcharging occurs when water rises above the top of the highest conduit.
  ---------------------------------------------------------------------
                                               Max. Height   Min. Depth
                                   Hours       Above Crown    Below Rim
  Node                 Type      Surcharged           Feet         Feet
  ---------------------------------------------------------------------
  N1                   JUNCTION       22.99         14.480        0.000
  N2                   JUNCTION       22.79          2.694        0.000
  N3                   JUNCTION       22.90          4.584        0.000
  N4                   JUNCTION       22.99         10.000        0.000
  N5                   JUNCTION       22.76          3.980        0.000
  
  
  *********************
  Node Flooding Summary
  *********************
  
  Flooding refers to all water that overflows a node, whether it ponds or not.
  --------------------------------------------------------------------------
                                                             Total   Maximum
                                 Maximum   Time of Max       Flood    Ponded
                        Hours       Rate    Occurrence      Volume     Depth
  Node                 Flooded       GPM   days hr:min    10^6 gal      Feet
  --------------------------------------------------------------------------
  N1                      0.01   1635.75      0  00:00       0.000    10.000
  N4                      0.01  21295.04      0  00:00       0.000    10.000
  N5                      0.01   1717.46      0  00:14       0.001     0.000
  
  
  **********************
  Storage Volume Summary
  **********************
  
  --------------------------------------------------------------------------------------------------
                         Average     Avg  Evap Exfil       Maximum     Max    Time of Max    Maximum
                          Volume    Pcnt  Pcnt  Pcnt        Volume    Pcnt     Occurrence    Outflow
  Storage Unit          1000 ft3    Full  Loss  Loss      1000 ft3    Full    days hr:min        GPM
  --------------------------------------------------------------------------------------------------
  STOR-10                  0.085      85     0     0         0.086      86       0  00:15    4248.37
  STOR-12                  0.071      51     0     0         0.075      54       0  00:16    4165.53
  
  
  ***********************
  Outfall Loading Summary
  ***********************
  
  -----------------------------------------------------------
                         Flow       Avg       Max       Total
                         Freq      Flow      Flow      Volume
  Outfall Node           Pcnt       GPM       GPM    10^6 gal
  -----------------------------------------------------------
  OFALL-10             100.00   3976.72  22686.93       5.482
  -----------------------------------------------------------
  System               100.00   3976.72  22686.93       5.482
  
  
  ********************
  Link Flow Summary
  ********************
  
  -----------------------------------------------------------------------------
                                 Maximum  Time of Max   Maximum    Max/    Max/
                                  |Flow|   Occurrence   |Veloc|    Full    Full
  Link                 Type          GPM  days hr:min    ft/sec    Flow   Depth
  -----------------------------------------------------------------------------
  1                    CONDUIT   4159.36     0  00:15      3.81    0.26    1.00
  2                    CONDUIT   4175.71     0  00:00      9.56   36.04    1.00
  3                    CONDUIT   4191.24     0  00:15      3.83    0.24    1.00
  4                    CONDUIT   4715.39     0  00:01      4.47    0.50    1.00
  5                    CONDUIT  22686.93     0  00:00     21.22    1.67    1.00
  6                    CONDUIT   4150.53     0  00:15      4.31    1.09    1.00
  WEIR-11              WEIR      4248.37     0  00:15                      0.18
  
  
  ***************************
  Flow Classification Summary
  ***************************
  
  -------------------------------------------------------------------------------------
                      Adjusted    ---------- Fraction of Time in Flow Class ---------- 
                       /Actual         Up    Down  Sub   Sup   Up    Down  Norm  Inlet 
  Conduit               Length    Dry  Dry   Dry   Crit  Crit  Crit  Crit  Ltd   Ctrl  
  -------------------------------------------------------------------------------------
  1                       1.00   0.00  0.00  0.00  1.00  0.00  0.00  0.00  0.00  0.00
  2                       1.00   0.00  0.00  0.00  1.00  0.00  0.00  0.00  0.00  0.00
  3                       1.00   0.00  0.00  0.00  1.00  0.00  0.00  0.00  0.00  0.00
  4                       1.00   0.00  0.00  0.00  1.00  0.00  0.00  0.00  0.00  0.00
  5                       1.00   0.00  0.00  0.00  1.00  0.00  0.00  0.00  0.00  0.00
  6                       1.00   0.00  0.00  0.00  1.00  0.00  0.00  0.00  0.00  0.00
  
  
  *************************
  Conduit Surcharge Summary
  *************************
  
  ----------------------------------------------------------------------------
                                                           Hours        Hours 
                         --------- Hours Full --------   Above Full   Capacity
  Conduit                Both Ends  Upstream  Dnstream   Normal Flow   Limited
  ----------------------------------------------------------------------------
  1                          22.79     22.79     22.90      0.01         0.01
  2                          22.88     22.99     22.88     23.00        22.88
  3                          22.80     22.80     22.90      0.01         0.01
  4                          22.97     22.97     22.99      0.01         0.01
  5                          22.99     22.99     23.00      0.01         0.01
  6                          22.76     22.76     22.79     22.78        22.76
  

  Analysis begun on:  Wed Jan 02 04:45:00 2019
  Analysis ended on:  Wed Jan 02 04:45:00 2019
  Total elapsed time: < 1 sec