
  EPA STORM WATER MANAGEMENT MODEL - VERSION 5.1 (Build 5.1.012)
  --------------------------------------------------------------

  Imported Network from SWMM4 to Test all Outfall Types in SWMM5 
  
  
  *************
  Element Count
  *************
  Number of rain gages ...... 0
  Number of subcatchments ... 0
  Number of nodes ........... 6
  Number of links ........... 5
  Number of pollutants ...... 0
  Number of land uses ....... 0
  
  
  ************
  Node Summary
  ************
                                           Invert      Max.    Ponded    External
  Name                 Type                 Elev.     Depth      Area    Inflow  
  -------------------------------------------------------------------------------
  Inflow_Node          JUNCTION            190.00     10.00       0.0    Yes
  Free_Outfall         OUTFALL             185.00      6.00       0.0
  Fixed_Outfall        OUTFALL             185.00      6.00       0.0
  Tidal                OUTFALL             185.00      6.00       0.0
  Normal_Outfall       OUTFALL             185.00      6.00       0.0
  TimeSeries_Outfall   OUTFALL             185.00      6.00       0.0
  
  
  ************
  Link Summary
  ************
  Name             From Node        To Node          Type            Length    %Slope Roughness
  ---------------------------------------------------------------------------------------------
  1000             Inflow_Node      Free_Outfall     CONDUIT         1000.0    0.5000    0.0300
  2000             Inflow_Node      Fixed_Outfall    CONDUIT         1000.0    0.5000    0.0300
  4000             Inflow_Node      Tidal            CONDUIT         1000.0    0.5000    0.0300
  6000             Inflow_Node      Normal_Outfall   CONDUIT         1000.0    0.5000    0.0300
  7000             Inflow_Node      TimeSeries_Outfall CONDUIT         1000.0    0.5000    0.0300
  
  
  *********************
  Cross Section Summary
  *********************
                                        Full     Full     Hyd.     Max.   No. of     Full
  Conduit          Shape               Depth     Area     Rad.    Width  Barrels     Flow
  ---------------------------------------------------------------------------------------
  1000             CIRCULAR             6.00    28.27     1.50     6.00        1   129.77
  2000             CIRCULAR             6.00    28.27     1.50     6.00        1   129.77
  4000             CIRCULAR             6.00    28.27     1.50     6.00        1   129.77
  6000             CIRCULAR             6.00    28.27     1.50     6.00        1   129.77
  7000             CIRCULAR             6.00    28.27     1.50     6.00        1   129.77
  
  
  
  *********************************************************
  NOTE: The summary statistics displayed in this report are
  based on results found at every computational time step,  
  not just on results from each reporting time step.
  *********************************************************
  
  ****************
  Analysis Options
  ****************
  Flow Units ............... CFS
  Process Models:
    Rainfall/Runoff ........ NO
    RDII ................... NO
    Snowmelt ............... NO
    Groundwater ............ NO
    Flow Routing ........... YES
    Ponding Allowed ........ NO
    Water Quality .......... NO
  Flow Routing Method ...... DYNWAVE
  Starting Date ............ 01/01/1988 00:00:00
  Ending Date .............. 01/01/1988 12:00:00
  Antecedent Dry Days ...... 0.0
  Report Time Step ......... 00:15:00
  Routing Time Step ........ 60.00 sec
  Variable Time Step ....... YES
  Maximum Trials ........... 8
  Number of Threads ........ 1
  Head Tolerance ........... 0.005000 ft
  
  
  **************************        Volume        Volume
  Flow Routing Continuity        acre-feet      10^6 gal
  **************************     ---------     ---------
  Dry Weather Inflow .......         0.000         0.000
  Wet Weather Inflow .......         0.000         0.000
  Groundwater Inflow .......         0.000         0.000
  RDII Inflow ..............         0.000         0.000
  External Inflow ..........        22.726         7.406
  External Outflow .........        22.884         7.457
  Flooding Loss ............         0.000         0.000
  Evaporation Loss .........         0.000         0.000
  Exfiltration Loss ........         0.000         0.000
  Initial Stored Volume ....         0.502         0.164
  Final Stored Volume ......         0.399         0.130
  Continuity Error (%) .....        -0.235
  
  
  ***************************
  Time-Step Critical Elements
  ***************************
  None
  
  
  ********************************
  Highest Flow Instability Indexes
  ********************************
  All links are stable.
  
  
  *************************
  Routing Time Step Summary
  *************************
  Minimum Time Step           :    59.50 sec
  Average Time Step           :    59.92 sec
  Maximum Time Step           :    60.00 sec
  Percent in Steady State     :     0.00
  Average Iterations per Step :     2.00
  Percent Not Converging      :     0.00
  
  
  ******************
  Node Depth Summary
  ******************
  
  ---------------------------------------------------------------------------------
                                 Average  Maximum  Maximum  Time of Max    Reported
                                   Depth    Depth      HGL   Occurrence   Max Depth
  Node                 Type         Feet     Feet     Feet  days hr:min        Feet
  ---------------------------------------------------------------------------------
  Inflow_Node          JUNCTION     0.80     1.00   191.00     0  00:00        0.83
  Free_Outfall         OUTFALL      0.45     0.55   185.55     0  00:01        0.48
  Fixed_Outfall        OUTFALL      1.00     1.00   186.00     0  00:00        1.00
  Tidal                OUTFALL      2.10     3.00   188.00     0  00:00        3.00
  Normal_Outfall       OUTFALL      0.79     0.92   185.92     0  00:01        0.83
  TimeSeries_Outfall   OUTFALL      2.00     3.00   188.00     0  12:00        3.00
  
  
  *******************
  Node Inflow Summary
  *******************
  
  -------------------------------------------------------------------------------------------------
                                  Maximum  Maximum                  Lateral       Total        Flow
                                  Lateral    Total  Time of Max      Inflow      Inflow     Balance
                                   Inflow   Inflow   Occurrence      Volume      Volume       Error
  Node                 Type           CFS      CFS  days hr:min    10^6 gal    10^6 gal     Percent
  -------------------------------------------------------------------------------------------------
  Inflow_Node          JUNCTION     25.00    25.00     0  01:01        7.41        7.41      -0.690
  Free_Outfall         OUTFALL       0.00     4.64     0  00:01           0        1.03       0.000
  Fixed_Outfall        OUTFALL       0.00     6.12     0  00:01           0        1.61       0.000
  Tidal                OUTFALL       0.00     6.41     0  00:01           0        1.61       0.000
  Normal_Outfall       OUTFALL       0.00     6.68     0  00:01           0         1.6       0.000
  TimeSeries_Outfall   OUTFALL       0.00     6.41     0  00:01           0        1.61       0.000
  
  
  **********************
  Node Surcharge Summary
  **********************
  
  No nodes were surcharged.
  
  
  *********************
  Node Flooding Summary
  *********************
  
  No nodes were flooded.
  
  
  ***********************
  Outfall Loading Summary
  ***********************
  
  -----------------------------------------------------------
                         Flow       Avg       Max       Total
                         Freq      Flow      Flow      Volume
  Outfall Node           Pcnt       CFS       CFS    10^6 gal
  -----------------------------------------------------------
  Free_Outfall         100.00      3.19      4.64       1.032
  Fixed_Outfall        100.00      4.97      6.12       1.607
  Tidal                100.00      4.97      6.41       1.608
  Normal_Outfall       100.00      4.95      6.68       1.602
  TimeSeries_Outfall   100.00      4.97      6.41       1.608
  -----------------------------------------------------------
  System               100.00     23.05     30.28       7.457
  
  
  ********************
  Link Flow Summary
  ********************
  
  -----------------------------------------------------------------------------
                                 Maximum  Time of Max   Maximum    Max/    Max/
                                  |Flow|   Occurrence   |Veloc|    Full    Full
  Link                 Type          CFS  days hr:min    ft/sec    Flow   Depth
  -----------------------------------------------------------------------------
  1000                 CONDUIT      4.64     0  00:01      2.32    0.04    0.12
  2000                 CONDUIT      6.12     0  00:01      2.12    0.05    0.17
  4000                 CONDUIT      6.41     0  00:01      1.97    0.05    0.33
  6000                 CONDUIT      6.68     0  00:01      2.41    0.05    0.15
  7000                 CONDUIT      6.41     0  00:01      1.97    0.05    0.33
  
  
  ***************************
  Flow Classification Summary
  ***************************
  
  -------------------------------------------------------------------------------------
                      Adjusted    ---------- Fraction of Time in Flow Class ---------- 
                       /Actual         Up    Down  Sub   Sup   Up    Down  Norm  Inlet 
  Conduit               Length    Dry  Dry   Dry   Crit  Crit  Crit  Crit  Ltd   Ctrl  
  -------------------------------------------------------------------------------------
  1000                    1.00   0.00  0.00  0.00  1.00  0.00  0.00  0.00  0.00  0.00
  2000                    1.00   0.00  0.00  0.00  1.00  0.00  0.00  0.00  1.00  0.00
  4000                    1.00   0.00  0.00  0.00  1.00  0.00  0.00  0.00  1.00  0.00
  6000                    1.00   0.00  0.00  0.00  1.00  0.00  0.00  0.00  0.02  0.00
  7000                    1.00   0.00  0.00  0.00  1.00  0.00  0.00  0.00  1.00  0.00
  
  
  *************************
  Conduit Surcharge Summary
  *************************
  
  No conduits were surcharged.
  

  Analysis begun on:  Wed Jan 02 04:45:05 2019
  Analysis ended on:  Wed Jan 02 04:45:05 2019
  Total elapsed time: < 1 sec