
  EPA STORM WATER MANAGEMENT MODEL - VERSION 5.1 (Build 5.1.012)
  --------------------------------------------------------------

  WARNING 02: maximum depth increased for Node 4172
  
  *********************************************************
  NOTE: The summary statistics displayed in this report are
  based on results found at every computational time step,  
  not just on results from each reporting time step.
  *********************************************************
  
  ****************
  Analysis Options
  ****************
  Flow Units ............... LPS
  Process Models:
    Rainfall/Runoff ........ YES
    RDII ................... NO
    Snowmelt ............... NO
    Groundwater ............ NO
    Flow Routing ........... YES
    Ponding Allowed ........ YES
    Water Quality .......... NO
  Infiltration Method ...... HORTON
  Flow Routing Method ...... DYNWAVE
  Starting Date ............ 01/01/2002 00:00:00
  Ending Date .............. 01/03/2002 00:00:00
  Antecedent Dry Days ...... 5.0
  Report Time Step ......... 00:05:00
  Wet Time Step ............ 00:05:00
  Dry Time Step ............ 01:00:00
  Routing Time Step ........ 300.00 sec
  Variable Time Step ....... NO
  Maximum Trials ........... 8
  Number of Threads ........ 1
  Head Tolerance ........... 0.001500 m
  
  
  **************************        Volume         Depth
  Runoff Quantity Continuity     hectare-m            mm
  **************************     ---------       -------
  Total Precipitation ......        34.321        83.420
  Evaporation Loss .........         0.797         1.936
  Infiltration Loss ........         0.318         0.774
  Surface Runoff ...........        30.707        74.635
  Final Storage ............         2.501         6.079
  Continuity Error (%) .....        -0.005
  
  
  **************************        Volume        Volume
  Flow Routing Continuity        hectare-m      10^6 ltr
  **************************     ---------     ---------
  Dry Weather Inflow .......         0.000         0.000
  Wet Weather Inflow .......        30.704       307.042
  Groundwater Inflow .......         0.000         0.000
  RDII Inflow ..............         0.000         0.000
  External Inflow ..........         0.000         0.000
  External Outflow .........       982.044      9820.540
  Flooding Loss ............      4146.517     41465.600
  Evaporation Loss .........         0.000         0.000
  Exfiltration Loss ........         0.000         0.000
  Initial Stored Volume ....         0.000         0.000
  Final Stored Volume ......         0.098         0.979
  Continuity Error (%) .....    -16603.634
  
  
  *************************
  Highest Continuity Errors
  *************************
  Node P-STMH-000035 (-5074.12%)
  Node 4725 (-3682.78%)
  Node 22755 (-3369.33%)
  Node P-STMH-000022 (-2408.28%)
  Node P-STMH-000069 (-1575.72%)
  
  
  ********************************
  Highest Flow Instability Indexes
  ********************************
  Link P-STMPIP-000029 (148)
  Link P-STMPIP-000069 (148)
  Link P-STMPIP-000073 (148)
  Link P-STMPIP-000081 (148)
  Link 11039 (148)
  
  
  *************************
  Routing Time Step Summary
  *************************
  Minimum Time Step           :   300.00 sec
  Average Time Step           :   300.00 sec
  Maximum Time Step           :   300.00 sec
  Percent in Steady State     :     0.00
  Average Iterations per Step :     7.93
  Percent Not Converging      :    98.78
  
  
  ***************************
  Subcatchment Runoff Summary
  ***************************
  
  --------------------------------------------------------------------------------------------------------
                            Total      Total      Total      Total      Total       Total     Peak  Runoff
                           Precip      Runon       Evap      Infil     Runoff      Runoff   Runoff   Coeff
  Subcatchment                 mm         mm         mm         mm         mm    10^6 ltr      LPS
  --------------------------------------------------------------------------------------------------------
  DP-2-A                    83.42       0.00       1.93       0.78      75.08       10.61   209.66   0.900
  L10-1-A                   83.42       0.00       1.90       0.67      76.47        4.73   110.93   0.917
  L10-1-B                   83.42       0.00       1.89       0.87      75.61        2.14    49.18   0.906
  L3-1-A                    83.42       0.00       1.94       0.64      76.07        6.23   133.50   0.912
  L3-1-B                    83.42       0.00       1.92       0.50      77.18        3.38    81.57   0.925
  L3-1-C                    83.42       0.00       1.95       0.56      76.50        6.67   146.60   0.917
  L3-1-D                    83.42       0.00       1.95       0.46      77.13        5.60   129.70   0.925
  L3A-A                     83.42       0.00       1.91       1.05      73.70        7.04   134.02   0.884
  L3A-B                     83.42       0.00       1.91       0.99      74.07        7.94   154.49   0.888
  L3A-C                     83.42       0.00       1.92       0.43      77.62        6.18   161.83   0.931
  L3A-D                     83.42       0.00       1.90       1.10      74.01        5.41   109.03   0.887
  L3C-A                     83.42       0.00       1.95       1.05      69.50       28.09   409.80   0.833
  L4-1-A                    83.42       0.00       1.96       0.64      75.47       16.97   330.51   0.905
  L4-1-B                    83.42       0.00       1.90       0.65      76.67        4.36   107.76   0.919
  L4-1-C                    83.42       0.00       1.93       0.72      75.73        8.41   178.68   0.908
  L4-1A-A                   83.42       0.00       1.93       0.62      76.34       11.06   244.95   0.915
  L4-1A-B                   83.42       0.00       1.93       0.56      76.71        8.37   190.82   0.920
  L4-A                      83.42       0.00       1.96       0.68      75.19       19.26   379.87   0.901
  L6-A                      83.42       0.00       1.93       0.91      73.90        9.66   174.36   0.886
  L6-A-A                    83.42       0.00       1.95       0.93      72.11       21.05   358.53   0.864
  L6-B                      83.42       0.00       1.94       0.78      74.94        7.90   154.03   0.898
  L6-C                      83.42       0.00       1.93       0.72      75.71        5.09   107.35   0.908
  L6-D                      83.42       0.00       1.92       0.80      75.27        7.14   147.27   0.902
  L6-E                      83.42       0.00       1.96       0.58      76.25        7.67   163.40   0.914
  L8-A                      83.42       0.00       1.94       0.81      74.80       10.04   194.96   0.897
  L8-A-A                    83.42       0.00       1.95       0.68      75.56        8.58   172.87   0.906
  L8-A-B                    83.42       0.00       1.94       0.72      75.72        6.55   146.22   0.908
  L8-A-C                    83.42       0.00       1.92       0.91      74.53        7.82   153.19   0.893
  L8-A-D                    83.42       0.00       1.94       0.58      76.50        5.48   121.71   0.917
  L8-A-E                    83.42       0.00       1.90       0.82      75.71        3.31    74.36   0.908
  L8-A-F                    83.42       0.00       1.88       0.66      76.86        1.64    43.93   0.921
  L8-B                      83.42       0.00       1.93       0.68      75.96        5.50   118.64   0.911
  LC1-A-A                   83.42       0.00       1.91       0.74      75.96        6.67   149.17   0.911
  LC1-A-B                   83.42       0.00       1.93       1.11      71.55       10.24   163.38   0.858
  LC1-A-C                   83.42       0.00       1.89       0.83      75.75        4.62   106.27   0.908
  LC1-A-D                   83.42       0.00       1.84       0.50      77.80        0.30     8.89   0.933
  LC1-A-E                   83.42       0.00       1.86       0.50      77.70        0.68    19.76   0.931
  LC1-A-F                   83.42       0.00       1.94       0.28      78.17        4.89   125.94   0.937
  LC1-A-G                   83.42       0.00       1.93       0.66      76.07        9.80   214.03   0.912
  
  
  ******************
  Node Depth Summary
  ******************
  
  ---------------------------------------------------------------------------------
                                 Average  Maximum  Maximum  Time of Max    Reported
                                   Depth    Depth      HGL   Occurrence   Max Depth
  Node                 Type       Meters   Meters   Meters  days hr:min      Meters
  ---------------------------------------------------------------------------------
  1416                 JUNCTION     1.09     2.86    63.41     0  03:15        2.86
  1429                 JUNCTION     1.18     1.45    70.38     0  00:55        1.45
  22717                JUNCTION     1.43     1.67    17.47     0  00:45        1.66
  22755                JUNCTION     0.37     2.26    17.73     0  01:10        2.26
  22756                JUNCTION     0.02     2.29    16.69     0  00:40        2.29
  232234               JUNCTION     2.03     2.37    45.33     0  00:45        2.37
  232239               JUNCTION     1.83     2.54    44.38     0  01:05        2.54
  232243               JUNCTION     2.15     2.29    42.77     0  00:40        2.30
  232250               JUNCTION     1.83     2.02    40.63     0  01:35        2.03
  232255               JUNCTION     2.53     4.01    39.56     0  00:50        4.01
  232264               JUNCTION     0.30     1.45    44.68     0  02:30        1.45
  232299               JUNCTION     1.69     2.96    20.76     0  00:45        2.96
  232301               JUNCTION     1.44     2.75    19.50     0  00:55        2.75
  232303               JUNCTION     0.62     2.74    18.50     0  00:40        2.74
  234554               JUNCTION     1.16     1.45    70.28     0  00:55        1.45
  234557               JUNCTION     1.61     2.16    70.42     0  00:40        2.16
  234558               JUNCTION     1.70     2.10    70.07     0  00:55        2.10
  234559               JUNCTION     1.47     2.05    69.62     0  01:20        2.05
  234560               JUNCTION     1.04     1.82    68.94     0  00:55        1.82
  234561               JUNCTION     0.69     1.04    67.97     0  00:50        1.04
  234562               JUNCTION     0.58     1.75    66.66     0  00:55        1.75
  234876               JUNCTION     1.25     1.45    74.48     0  03:15        1.45
  24077                JUNCTION     1.82     2.11    70.44     0  00:55        2.11
  24078                JUNCTION     0.88     1.47    68.41     0  00:45        1.47
  24079                JUNCTION     1.04     1.45    67.87     0  00:40        1.45
  24088                JUNCTION     1.87     2.56    20.46     0  01:05        2.56
  24089                JUNCTION     1.44     2.25    18.34     0  00:50        2.25
  24566                JUNCTION     0.02     4.40    21.50     0  01:30        4.40
  2790                 JUNCTION     0.27     1.45    37.59     0  00:40        1.45
  2791                 JUNCTION     0.00     0.45    37.92     0  00:40        0.45
  2792                 JUNCTION     1.41     1.45    41.64     0  00:50        1.45
  3822                 JUNCTION     1.74     2.14    64.66     0  00:45        2.14
  3826                 JUNCTION     0.55     1.25    44.66     0  01:05        1.25
  4169                 JUNCTION     1.25     1.71    58.66     0  00:45        1.71
  4170                 JUNCTION     0.57     1.39    56.24     0  00:50        1.39
  4171                 JUNCTION     1.50     1.83    51.88     0  00:55        1.83
  4172                 JUNCTION     1.77     1.79    48.76     0  00:45        1.79
  4182                 JUNCTION     0.12     0.88    75.67     1  09:00        0.88
  4587                 JUNCTION     0.36     2.19    16.81     0  00:45        2.19
  4589                 JUNCTION     1.76     3.81    22.29     0  01:05        3.81
  4723                 JUNCTION     2.68     2.75    47.10     0  00:40        2.75
  4724                 JUNCTION     2.07     2.12    44.65     0  01:05        2.12
  4725                 JUNCTION     1.50     2.83    43.53     0  01:10        2.83
  4726                 JUNCTION     1.72     2.04    40.34     0  00:45        2.04
  4744                 JUNCTION     3.63     4.15    39.77     0  00:45        4.15
  4745                 JUNCTION     1.86     3.41    38.60     0  00:55        3.41
  4746                 JUNCTION     0.87     3.25    35.60     0  01:00        3.25
  4747                 JUNCTION     1.10     1.39    30.16     0  00:40        1.39
  JCT-10               JUNCTION     0.45     1.25    29.30     0  00:40        1.25
  JCT-20               JUNCTION     2.22     3.81    38.63     0  00:50        3.81
  JCT-24               JUNCTION     1.17     1.45    43.14     0  01:10        1.45
  JCT-26               JUNCTION     1.33     1.45    40.19     0  00:45        1.45
  JCT-28               JUNCTION     0.22     0.97    37.77     0  00:40        0.97
  JCT-48               JUNCTION     0.15     0.35    10.35     0  08:50        0.35
  P-STMH-000002        JUNCTION     0.66     1.25    36.24     0  01:25        1.25
  P-STMH-000003        JUNCTION     1.03     1.25    35.70     0  01:00        1.25
  P-STMH-000004        JUNCTION     2.86     4.34    38.44     0  00:55        4.34
  P-STMH-000008        JUNCTION     0.13     1.25    42.92     1  05:05        1.25
  P-STMH-000009        JUNCTION     0.23     1.25    34.58     0  04:40        1.25
  P-STMH-000013        JUNCTION     0.31     1.25    22.73     0  07:05        1.25
  P-STMH-000014        JUNCTION     0.46     1.25    18.45     0  06:35        1.25
  P-STMH-000015        JUNCTION     0.64     1.25    17.70     0  01:25        1.25
  P-STMH-000016        JUNCTION     0.78     1.04    17.00     0  01:10        1.04
  P-STMH-000017        JUNCTION     0.07     0.18    94.26     0  09:40        0.18
  P-STMH-000018        JUNCTION     0.41     1.25    85.46     0  07:00        1.25
  P-STMH-000019        JUNCTION     0.22     1.25    82.50     0  08:30        1.25
  P-STMH-000020        JUNCTION     0.00     0.00    78.96     0  00:00        0.00
  P-STMH-000021        JUNCTION     0.38     1.25    76.08     0  05:55        1.25
  P-STMH-000022        JUNCTION     0.33     1.25    74.49     1  18:20        1.25
  P-STMH-000025        JUNCTION     0.14     0.68    76.78     0  09:35        0.68
  P-STMH-000028        JUNCTION     0.07     0.19    79.93     0  09:35        0.19
  P-STMH-000030        JUNCTION     0.10     0.25    74.74     0  09:45        0.25
  P-STMH-000031        JUNCTION     0.13     1.01    71.31     0  09:40        1.01
  P-STMH-000032        JUNCTION     0.95     1.25    68.00     0  00:55        1.25
  P-STMH-000033        JUNCTION     0.91     1.25    68.32     0  00:55        1.25
  P-STMH-000034        JUNCTION     0.89     1.25    68.50     0  00:40        1.25
  P-STMH-000035        JUNCTION     0.12     0.48    71.73     1  16:20        0.48
  P-STMH-000036        JUNCTION     0.00     0.00    74.15     0  00:00        0.00
  P-STMH-000037        JUNCTION     0.00     0.00    78.21     0  00:00        0.00
  P-STMH-000041        JUNCTION     0.45     1.25    57.08     0  01:00        1.25
  P-STMH-000042        JUNCTION     0.70     1.25    55.36     0  01:00        1.25
  P-STMH-000043        JUNCTION     0.70     3.60    59.09     0  01:25        3.60
  P-STMH-000044        JUNCTION     0.05     0.13    73.72     0  08:35        0.13
  P-STMH-000045        JUNCTION     0.14     1.25    59.10     0  08:25        1.25
  P-STMH-000046        JUNCTION     0.04     0.11    59.84     0  08:45        0.11
  P-STMH-000047        JUNCTION     0.07     0.18    52.67     0  08:30        0.18
  P-STMH-000048        JUNCTION     0.37     0.75    49.69     0  00:40        0.75
  P-STMH-000050        JUNCTION     1.23     1.25    56.50     0  00:45        1.25
  P-STMH-000051        JUNCTION     1.21     1.25    60.92     0  01:15        1.25
  P-STMH-000052        JUNCTION     0.22     0.45    54.58     0  00:50        0.45
  P-STMH-000053        JUNCTION     1.00     1.25    52.84     0  00:40        1.25
  P-STMH-000057        JUNCTION     0.07     0.30    49.22     0  06:40        0.30
  P-STMH-000060        JUNCTION     0.88     1.25    54.52     0  01:20        1.25
  P-STMH-000064        JUNCTION     0.33     1.25    59.50     0  07:15        1.25
  P-STMH-000066        JUNCTION     0.33     1.25    56.52     0  01:10        1.25
  P-STMH-000068        JUNCTION     0.89     1.25    50.20     0  05:20        1.25
  P-STMH-000069        JUNCTION     0.15     1.25    45.50     0  01:00        1.25
  P-STMH-000070        JUNCTION     0.42     2.32    67.95     0  02:05        2.32
  OFALL-10             OUTFALL      0.08     0.21     9.21     0  08:50        0.21
  OUT-DP-2             OUTFALL      0.15     0.30    13.35     0  02:10        0.30
  OUT-L10-1            OUTFALL      0.03     0.38    44.76     0  00:45        0.38
  OUT-L3-1             OUTFALL      0.12     0.25    14.16     0  00:40        0.25
  OUT-L3-C             OUTFALL      0.29     0.60    17.60     0  01:35        0.60
  OUT-L3A              OUTFALL      0.23     0.45    30.03     0  00:40        0.45
  OUT-L4               OUTFALL      0.43     0.90    15.06     0  00:50        0.90
  OUT-L4-1             OUTFALL      0.19     0.38    28.68     0  00:45        0.38
  OUT-L4-1A            OUTFALL      0.15     0.30    40.57     0  01:05        0.30
  OUT-L6               OUTFALL      0.33     0.38    71.58     0  02:50        0.38
  OUT-L6-A             OUTFALL      0.22     0.45    63.45     0  03:00        0.45
  OUT-LB-8             OUTFALL      0.44     0.45    41.51     0  00:40        0.45
  OUT-LC1-A            OUTFALL      0.19     0.38    25.53     0  00:45        0.38
  POND-DP-2            STORAGE      0.00     0.00    13.71     0  00:00        0.00
  POND-L10-1           STORAGE      1.55     2.00    54.02     0  00:45        2.00
  POND-L3-1            STORAGE      1.95     2.00    17.87     0  01:05        2.00
  POND-L3-C            STORAGE      0.02     2.00    19.20     0  01:40        2.00
  POND-L3A             STORAGE      1.62     2.00    32.50     0  00:50        2.00
  POND-L4              STORAGE      1.52     2.00    20.70     0  00:45        2.00
  POND-L4-1            STORAGE      1.97     2.00    34.16     0  00:45        2.00
  POND-L4-1A           STORAGE      1.63     2.00    55.03     0  01:15        2.00
  POND-L6              STORAGE      1.53     2.00    75.45     0  04:40        2.00
  POND-L6-A            STORAGE      0.00     0.00    66.25     0  00:00        0.00
  POND-L8              STORAGE      1.98     2.00    53.90     0  00:40        2.00
  POND-L8-A            STORAGE      1.73     2.00    68.15     0  00:45        2.00
  POND-LC1-A           STORAGE      1.97     2.00    37.98     0  00:40        2.00
  
  
  *******************
  Node Inflow Summary
  *******************
  
  -------------------------------------------------------------------------------------------------
                                  Maximum  Maximum                  Lateral       Total        Flow
                                  Lateral    Total  Time of Max      Inflow      Inflow     Balance
                                   Inflow   Inflow   Occurrence      Volume      Volume       Error
  Node                 Type           LPS      LPS  days hr:min    10^6 ltr    10^6 ltr     Percent
  -------------------------------------------------------------------------------------------------
  1416                 JUNCTION      0.00 60093.77     0  03:15           0         531     -83.429
  1429                 JUNCTION      0.00  6359.37     0  00:55           0        84.3       4.608
  22717                JUNCTION      0.00465247.08     1  09:25           0   1.13e+004      20.970
  22755                JUNCTION      0.00  2250.50     0  01:30           0        0.68     -97.118
  22756                JUNCTION      0.00  3964.95     0  01:25           0        23.4     -93.504
  232234               JUNCTION      0.00 16116.54     0  01:30           0         657     -22.447
  232239               JUNCTION      0.00 23380.01     0  03:15           0         675      19.242
  232243               JUNCTION      0.00252813.55     0  04:40           0   2.14e+004      89.238
  232250               JUNCTION      0.00 79132.83     0  03:40           0   1.36e+003       0.733
  232255               JUNCTION      0.00133808.26     0  08:00           0         449     -25.559
  232264               JUNCTION      0.00  3147.98     0  04:55           0        44.4     -89.377
  232299               JUNCTION      0.00331134.85     1  20:25           0   2.74e+003     -22.910
  232301               JUNCTION      0.00 56297.74     1  21:50           0         772     -57.232
  232303               JUNCTION      0.00357962.44     0  00:40           0      2e+003     -81.327
  234554               JUNCTION      0.00 33602.22     0  15:20           0        74.5      25.843
  234557               JUNCTION      0.00131132.47     0  22:10           0         895      27.777
  234558               JUNCTION      0.00 22349.84     1  02:40           0         248     -28.139
  234559               JUNCTION      0.00 23976.92     1  03:45           0         297      -6.748
  234560               JUNCTION      0.00 21090.84     1  04:45           0         279     -80.997
  234561               JUNCTION      0.00119714.33     0  04:05           0    1.1e+003     -79.118
  234562               JUNCTION      0.00 21745.06     0  04:15           0         227     -84.561
  234876               JUNCTION      0.00 27643.61     1  09:05           0         578      70.194
  24077                JUNCTION    125.94 64131.35     0  01:25        4.89         160     -83.243
  24078                JUNCTION      0.00 40532.81     0  21:45           0   1.45e+003       4.956
  24079                JUNCTION      0.00138327.01     0  01:50           0   4.88e+003      34.721
  24088                JUNCTION      0.00253379.34     1  06:30           0   3.23e+003     -31.783
  24089                JUNCTION      0.00 89611.56     1  18:30           0   1.68e+003     -32.201
  24566                JUNCTION      0.00 17878.69     0  01:30           0   1.28e+003     -11.554
  2790                 JUNCTION      0.00 10453.32     0  00:40           0         450     -35.918
  2791                 JUNCTION      0.00  1548.58     0  00:40           0        89.9     -62.817
  2792                 JUNCTION      0.00 14436.01     0  01:45           0         116       7.498
  3822                 JUNCTION      0.00 51944.42     0  04:25           0   1.41e+003      32.830
  3826                 JUNCTION    330.51  2908.14     0  17:20          17        75.2     -25.983
  4169                 JUNCTION      0.00 60428.27     0  16:40           0   3.18e+003      40.769
  4170                 JUNCTION      0.00 56630.87     0  16:30           0         869     -74.223
  4171                 JUNCTION      0.00 51257.66     0  16:55           0   3.12e+003      74.042
  4172                 JUNCTION      0.00 62965.85     0  00:50           0   2.77e+003       0.029
  4182                 JUNCTION    163.38   163.38     0  11:35        10.2        10.2     -98.230
  4587                 JUNCTION      0.00 37704.99     1  10:20           0         781     -86.718
  4589                 JUNCTION      0.00113149.84     1  01:05           0   1.54e+003     -69.519
  4723                 JUNCTION      0.00 19889.73     0  00:40           0   1.27e+003      -0.348
  4724                 JUNCTION      0.00107350.88     0  01:30           0         845       6.168
  4725                 JUNCTION      0.00 37498.17     0  00:55           0         565     -97.356
  4726                 JUNCTION      0.00117280.17     0  02:30           0    1.1e+003       6.383
  4744                 JUNCTION      0.00 68954.95     0  02:30           0         281     -55.036
  4745                 JUNCTION      0.00 51877.76     0  02:20           0         317     -82.627
  4746                 JUNCTION      0.00  7962.94     0  09:50           0          99     -91.230
  4747                 JUNCTION      0.00 25307.40     0  07:40           0    1.1e+003      79.972
  JCT-10               JUNCTION      0.00  7154.84     0  00:40           0        85.2     -93.015
  JCT-20               JUNCTION      0.00 50060.85     0  04:45           0   1.65e+003      73.345
  JCT-24               JUNCTION      0.00 14406.78     1  04:50           0         412      45.145
  JCT-26               JUNCTION      0.00  5078.92     0  00:45           0        91.3      -0.108
  JCT-28               JUNCTION      0.00  5590.22     0  00:40           0         242     -46.243
  JCT-48               JUNCTION    146.22   146.22     0  08:35        6.55        6.55       0.089
  P-STMH-000002        JUNCTION    154.49   628.34     1  15:25        7.94        9.92     -45.213
  P-STMH-000003        JUNCTION      0.00  8226.56     1  08:35           0         108      11.370
  P-STMH-000004        JUNCTION    109.03  5356.45     0  09:35        5.41         259     -19.649
  P-STMH-000008        JUNCTION    134.02   134.02     0  09:35        7.04        7.04     -97.085
  P-STMH-000009        JUNCTION    161.83  4926.48     1  11:30        6.18        72.2     -88.257
  P-STMH-000013        JUNCTION    210.47   210.47     0  09:35        8.98        8.98      -0.017
  P-STMH-000014        JUNCTION      0.00   112.76     0  07:35           0        7.42      -4.953
  P-STMH-000015        JUNCTION    133.50   496.97     0  02:00        6.23          15      -5.107
  P-STMH-000016        JUNCTION    146.60   476.28     0  01:50        6.67        20.9     -68.286
  P-STMH-000017        JUNCTION    107.35   107.35     0  09:35        5.09        5.09       0.007
  P-STMH-000018        JUNCTION    147.27   254.56     0  09:35        7.13        12.2       0.077
  P-STMH-000019        JUNCTION    174.36   278.66     0  09:35        9.66        18.6      -0.740
  P-STMH-000020        JUNCTION      0.00     0.00     0  00:00           0           0       0.000 ltr
  P-STMH-000021        JUNCTION    163.40   441.99     0  09:35        7.67        26.4     -68.719
  P-STMH-000022        JUNCTION      0.00   427.32     1  19:30           0        3.84     -96.013
  P-STMH-000025        JUNCTION    172.87   172.87     0  09:35        8.58        8.58       0.004
  P-STMH-000028        JUNCTION    121.71   121.71     0  09:35        5.48        5.48       0.007
  P-STMH-000030        JUNCTION      0.00   293.83     0  09:40           0        14.1       0.019
  P-STMH-000031        JUNCTION      0.00   334.63     0  09:35           0        15.7      -0.901
  P-STMH-000032        JUNCTION     74.36   526.23     1  13:05        3.31        20.6     -54.654
  P-STMH-000033        JUNCTION      0.00 10666.53     1  17:00           0        79.8     -14.813
  P-STMH-000034        JUNCTION      0.00  7650.16     0  06:15           0         417      53.684
  P-STMH-000035        JUNCTION    153.19   153.19     0  09:35        7.82        7.82     -98.067
  P-STMH-000036        JUNCTION      0.00     0.00     0  00:00           0           0       0.000 ltr
  P-STMH-000037        JUNCTION      0.00     0.00     0  00:00           0           0       0.000 ltr
  P-STMH-000041        JUNCTION    110.93  3544.77     1  10:25        4.73        26.5     -35.107
  P-STMH-000042        JUNCTION     49.18  4724.70     1  07:50        2.14         151      37.362
  P-STMH-000043        JUNCTION      0.00  1922.59     1  08:50           0          31     -77.799
  P-STMH-000044        JUNCTION     43.93    43.93     0  08:35        1.64        1.64      -0.003
  P-STMH-000045        JUNCTION    106.27   135.11     0  08:35        4.62        5.61      -0.046
  P-STMH-000046        JUNCTION     28.65    28.65     0  08:35       0.984       0.984       0.002
  P-STMH-000047        JUNCTION      0.00   124.07     0  08:35           0        5.57       0.037
  P-STMH-000048        JUNCTION    149.17 23244.37     0  00:50        6.67         446     -83.898
  P-STMH-000050        JUNCTION      0.00   686.78     0  00:40           0        81.4       0.040
  P-STMH-000051        JUNCTION    194.96  9722.91     1  13:20          10         169      12.228
  P-STMH-000052        JUNCTION    118.64   639.30     0  00:40         5.5        57.8     -88.735
  P-STMH-000053        JUNCTION      0.00  3514.43     0  08:20           0         273      38.810
  P-STMH-000057        JUNCTION    107.76   107.76     0  08:35        4.36        4.36     -92.180
  P-STMH-000060        JUNCTION    190.82   524.16     0  09:20        8.37        20.1     -91.744
  P-STMH-000064        JUNCTION    244.95   244.95     0  09:35        11.1        11.1      -0.761
  P-STMH-000066        JUNCTION      0.00  8722.04     0  05:10           0         114     -35.634
  P-STMH-000068        JUNCTION      0.00  3368.43     1  02:55           0        48.9      -2.754
  P-STMH-000069        JUNCTION      0.00  1383.25     0  05:50           0          36     -94.032
  P-STMH-000070        JUNCTION      0.00  4661.02     1  14:40           0        38.9     -76.212
  OFALL-10             OUTFALL       0.00   144.18     0  08:50           0        6.55       0.000
  OUT-DP-2             OUTFALL       0.00  4178.25     0  05:50           0         225       0.000
  OUT-L10-1            OUTFALL       0.00  7700.65     1  16:05           0         101       0.000
  OUT-L3-1             OUTFALL       0.00  8432.34     0  01:35           0         359       0.000
  OUT-L3-C             OUTFALL       0.00 20146.60     0  01:55           0         821       0.000
  OUT-L3A              OUTFALL       0.00  5599.27     1  14:00           0         105       0.000
  OUT-L4               OUTFALL       0.00139847.79     0  10:30           0   5.82e+003       0.000
  OUT-L4-1             OUTFALL       0.00   568.24     0  08:10           0        48.6       0.000
  OUT-L4-1A            OUTFALL       0.00  7559.15     0  05:45           0         603       0.000
  OUT-L6               OUTFALL       0.00  3495.04     1  19:15           0        82.2       0.000
  OUT-L6-A             OUTFALL       0.00  5548.38     0  07:10           0         312       0.000
  OUT-LB-8             OUTFALL       0.00  1132.05     0  00:40           0         120       0.000
  OUT-LC1-A            OUTFALL       0.00 14950.54     0  00:50           0   1.22e+003       0.000
  POND-DP-2            STORAGE     209.66   209.66     0  09:35        10.6        10.6     -95.289
  POND-L10-1           STORAGE       0.00  3254.35     0  04:50           0        44.4     -68.808
  POND-L3-1            STORAGE       0.00  2270.53     0  01:25           0        62.1      -0.109
  POND-L3-C            STORAGE     409.80  8407.54     0  02:05        28.1         655     -49.045
  POND-L3A             STORAGE       0.00  9831.27     1  12:50           0         610      -6.071
  POND-L4              STORAGE     379.87204186.06     1  19:50        19.3   3.15e+003     -25.380
  POND-L4-1            STORAGE     178.68 14671.30     0  00:55        8.41         706       0.081
  POND-L4-1A           STORAGE       0.00  4375.69     0  05:45           0         237      -9.721
  POND-L6              STORAGE     154.03  7398.76     1  21:45         7.9         105       1.800
  POND-L6-A            STORAGE     358.53   358.53     0  09:35          21          21     -93.261
  POND-L8              STORAGE       0.00  3007.37     0  08:20           0         240       0.085
  POND-L8-A            STORAGE       0.00  6775.41     0  01:10           0        90.7     -23.908
  POND-LC1-A           STORAGE     214.03 27193.23     0  01:15         9.8         962       0.046
  
  
  **********************
  Node Surcharge Summary
  **********************
  
  Surcharging occurs when water rises above the top of the highest conduit.
  ---------------------------------------------------------------------
                                               Max. Height   Min. Depth
                                   Hours       Above Crown    Below Rim
  Node                 Type      Surcharged         Meters       Meters
  ---------------------------------------------------------------------
  1416                 JUNCTION       31.42          1.610        0.000
  1429                 JUNCTION       46.83          1.000        0.000
  22717                JUNCTION       45.25          0.765        0.000
  22755                JUNCTION       47.08          1.885        0.000
  22756                JUNCTION        0.58          2.040        0.000
  232234               JUNCTION       46.58          1.319        0.000
  232239               JUNCTION       46.67          1.489        0.000
  232243               JUNCTION       46.58          1.245        0.000
  232250               JUNCTION       46.08          0.975        0.000
  232255               JUNCTION       44.00          3.563        0.000
  232264               JUNCTION       17.17          1.000        0.000
  232299               JUNCTION       34.58          2.058        0.000
  232301               JUNCTION       33.42          1.850        0.000
  232303               JUNCTION       16.42          1.844        0.000
  234554               JUNCTION       46.92          1.000        0.000
  234557               JUNCTION       45.67          1.485        0.000
  234558               JUNCTION       44.42          1.426        0.000
  234559               JUNCTION       43.92          1.376        0.000
  234560               JUNCTION       35.33          1.149        0.000
  234561               JUNCTION       36.17          0.370        0.000
  234562               JUNCTION       21.00          1.000        0.000
  234876               JUNCTION       46.42          0.925        0.000
  24077                JUNCTION       43.67          1.435        0.000
  24078                JUNCTION       35.67          0.795        0.000
  24079                JUNCTION       36.08          0.275        0.000
  24088                JUNCTION       39.83          1.660        0.000
  24089                JUNCTION       38.83          1.350        0.000
  24566                JUNCTION        0.42          3.800        0.000
  2790                 JUNCTION       23.83          0.925        0.000
  2791                 JUNCTION        0.08          0.000        1.000
  2792                 JUNCTION       47.33          1.000        0.000
  3822                 JUNCTION       47.17          1.390        0.000
  3826                 JUNCTION       26.42          0.950        0.000
  4169                 JUNCTION       43.33          0.960        0.000
  4170                 JUNCTION       27.58          0.640        0.000
  4171                 JUNCTION       47.25          1.030        0.000
  4172                 JUNCTION       47.33          0.000        0.000
  4182                 JUNCTION        5.08          0.357        0.568
  4587                 JUNCTION       14.75          1.260        0.000
  4589                 JUNCTION       33.17          2.910        0.000
  4723                 JUNCTION       46.75          0.850        0.000
  4724                 JUNCTION       47.08          0.990        0.000
  4725                 JUNCTION       46.25          1.660        0.000
  4726                 JUNCTION       46.83          0.990        0.000
  4744                 JUNCTION       44.25          3.690        0.000
  4745                 JUNCTION       37.00          2.770        0.000
  4746                 JUNCTION       21.33          2.800        0.000
  4747                 JUNCTION       47.42          0.940        0.000
  JCT-10               JUNCTION       23.75          0.340        0.000
  JCT-20               JUNCTION       38.50          3.364        0.000
  JCT-24               JUNCTION       46.25          1.000        0.000
  JCT-26               JUNCTION       47.33          1.000        0.000
  JCT-28               JUNCTION       23.75          0.517        0.483
  P-STMH-000002        JUNCTION       36.42          0.800        0.000
  P-STMH-000003        JUNCTION       41.67          0.800        0.000
  P-STMH-000004        JUNCTION       30.92          0.950        0.000
  P-STMH-000008        JUNCTION       14.33          0.950        0.000
  P-STMH-000009        JUNCTION       20.92          0.800        0.000
  P-STMH-000013        JUNCTION       10.33          0.950        0.000
  P-STMH-000014        JUNCTION       19.25          0.950        0.000
  P-STMH-000015        JUNCTION       25.67          0.800        0.000
  P-STMH-000016        JUNCTION       46.83          0.590        0.000
  P-STMH-000018        JUNCTION       14.33          0.950        0.000
  P-STMH-000019        JUNCTION        5.83          0.875        0.000
  P-STMH-000021        JUNCTION       19.50          0.800        0.000
  P-STMH-000022        JUNCTION       41.33          0.875        0.000
  P-STMH-000025        JUNCTION        2.75          0.307        0.568
  P-STMH-000031        JUNCTION        2.67          0.638        0.237
  P-STMH-000032        JUNCTION       38.67          0.800        0.000
  P-STMH-000033        JUNCTION       44.42          0.800        0.000
  P-STMH-000034        JUNCTION       44.58          0.800        0.000
  P-STMH-000035        JUNCTION       16.17          0.176        0.774
  P-STMH-000041        JUNCTION       22.25          0.875        0.000
  P-STMH-000042        JUNCTION       34.08          0.875        0.000
  P-STMH-000043        JUNCTION       22.08          3.225        0.000
  P-STMH-000045        JUNCTION        2.83          0.950        0.000
  P-STMH-000048        JUNCTION       23.83          0.000        0.540
  P-STMH-000050        JUNCTION       47.42          0.800        0.000
  P-STMH-000051        JUNCTION       47.42          0.800        0.000
  P-STMH-000052        JUNCTION       23.67          0.000        0.800
  P-STMH-000053        JUNCTION       47.42          0.800        0.000
  P-STMH-000057        JUNCTION        6.42          0.000        0.950
  P-STMH-000060        JUNCTION       45.25          0.800        0.000
  P-STMH-000064        JUNCTION       10.83          0.950        0.000
  P-STMH-000066        JUNCTION       18.83          0.875        0.000
  P-STMH-000068        JUNCTION       43.17          0.950        0.000
  P-STMH-000069        JUNCTION       23.50          0.950        0.000
  P-STMH-000070        JUNCTION       42.42          1.870        0.000
  
  
  *********************
  Node Flooding Summary
  *********************
  
  Flooding refers to all water that overflows a node, whether it ponds or not.
  --------------------------------------------------------------------------
                                                             Total   Maximum
                                 Maximum   Time of Max       Flood    Ponded
                        Hours       Rate    Occurrence      Volume     Depth
  Node                 Flooded       LPS   days hr:min    10^6 ltr    Meters
  --------------------------------------------------------------------------
  1416                    0.50  27604.46      0  03:15      18.978     0.000
  1429                    9.00   2912.14      0  00:55       6.494     0.000
  22717                  31.33 358733.31      0  21:25    7219.544     0.000
  22756                   0.25   1417.10      0  01:00       0.652     0.000
  232234                  0.42   9336.87      0  01:00       4.052     0.000
  232239                  0.50  12318.84      0  03:15       6.649     0.000
  232243                 23.25 123647.55      0  01:15    9985.838     0.000
  232250                 22.58  37335.80      0  03:40     252.418     0.000
  232255                  3.75  68228.03      0  08:00     163.034     0.000
  232264                  5.00    851.12      1  04:35       3.583     0.000
  232299                 11.33 168220.61      1  20:25     902.649     0.000
  232301                 11.42  48073.34      0  06:15     218.218     0.000
  232303                  2.00 178981.22      0  00:40     461.456     0.000
  234554                  8.33  15539.48      0  15:20      10.896     0.000
  234557                  4.42  58998.33      0  06:25     353.903     0.000
  234558                  5.50   6827.41      0  05:25      32.885     0.000
  234559                  5.08  11547.05      0  21:35      63.802     0.000
  234560                 12.92  11378.43      0  05:00      71.330     0.000
  234561                 12.58  61556.51      0  04:10     337.199     0.000
  234562                 11.42  12123.31      0  16:45      62.399     0.000
  234876                 17.83  13331.15      1  09:05     258.028     0.000
  24077                  36.50  23027.59      0  21:55      88.583     0.000
  24078                  14.50  20124.98      0  12:35     611.385     0.000
  24079                  23.50  82858.54      1  04:40    3028.289     0.000
  24088                  17.58 133221.24      1  05:20    1822.812     0.000
  24089                  14.08  39709.25      1  18:30     551.988     0.000
  24566                   0.17   8939.36      0  01:30       4.626     0.000
  2790                    0.17   8377.03      0  00:45       4.081     0.000
  2792                   34.25   7476.83      1  23:50      16.461     0.000
  3822                   11.58  24989.21      0  04:25     530.399     0.000
  3826                   14.50   1456.69      0  09:30      57.183     0.000
  4169                   23.83  28470.09      0  16:40    1396.272     0.000
  4170                    7.58  44240.85      0  16:30     246.978     0.000
  4171                   25.42  24402.75      0  16:55    1361.864     0.000
  4172                   47.33  44249.76      0  00:50    1500.731     0.000
  4587                    2.58  21120.28      1  10:20      51.001     0.000
  4589                    8.58  56060.16      1  09:05     591.157     0.000
  4723                   46.67   9944.87      0  00:40     622.336     0.000
  4724                   46.00  46862.39      0  01:30     115.508     0.000
  4725                    0.83   5283.07      0  03:00       7.095     0.000
  4726                    1.17  56186.45      0  02:30     125.098     0.000
  4744                   37.00  34936.24      0  02:30     138.920     0.000
  4745                   10.08  33419.80      0  05:40     125.163     0.000
  4746                   10.25   4213.02      0  05:35      31.052     0.000
  4747                   19.75  12977.13      0  07:40     525.041     0.000
  JCT-10                  0.17   3577.42      0  00:40       1.128     0.000
  JCT-20                 19.08  25036.56      0  04:50     827.979     0.000
  JCT-24                 19.83   8120.36      1  04:50     168.123     0.000
  JCT-26                 23.00   2603.94      0  00:50       1.537     0.000
  P-STMH-000002           2.33    337.97      1  11:55       0.799     0.000
  P-STMH-000003          33.75   4119.76      1  08:35      82.754     0.000
  P-STMH-000004          26.17   2018.96      0  09:35     165.754     0.000
  P-STMH-000008           1.25     16.97      1  05:05       0.058     0.000
  P-STMH-000009           1.42   2201.12      1  11:30       4.838     0.000
  P-STMH-000013           8.25     97.61      0  09:35       1.587     0.000
  P-STMH-000014          11.92     38.94      0  08:30       1.410     0.000
  P-STMH-000015           9.58    168.77      0  01:25       1.499     0.000
  P-STMH-000016           6.75    126.10      0  09:35       1.780     0.000
  P-STMH-000018          12.00    149.39      0  09:40       3.291     0.000
  P-STMH-000019           0.17     19.50      0  08:30       0.008     0.000
  P-STMH-000021           6.33    181.31      0  08:50       1.182     0.000
  P-STMH-000022           0.08    181.08      1  18:20       0.054     0.000
  P-STMH-000032          32.08    358.87      0  12:05      16.300     0.000
  P-STMH-000033           4.33   6478.65      1  16:15      22.424     0.000
  P-STMH-000034          19.00   3654.19      0  06:15     191.712     0.000
  P-STMH-000041           9.17   1773.57      1  10:25      11.163     0.000
  P-STMH-000042          14.33   2275.37      1  06:15      65.720     0.000
  P-STMH-000043           2.42    854.08      1  08:50       4.314     0.000
  P-STMH-000045           1.50     10.36      0  08:40       0.037     0.000
  P-STMH-000050          47.33    181.24      0  08:10      29.098     0.000
  P-STMH-000051          45.17   5298.16      1  17:15      69.574     0.000
  P-STMH-000053          23.75   1052.50      0  08:20      76.609     0.000
  P-STMH-000060           7.17    425.18      0  09:25       6.599     0.000
  P-STMH-000064           8.83    107.36      0  09:40       1.835     0.000
  P-STMH-000066           5.42   4249.07      1  02:55      26.142     0.000
  P-STMH-000068           7.42   1547.35      1  02:55      14.315     0.000
  P-STMH-000069           0.08    352.62      0  01:00       0.106     0.000
  P-STMH-000070           0.33   1547.19      1  12:55       1.189     0.000
  POND-L10-1             34.83   1749.34      0  04:50      41.731     0.000
  POND-L3-1              46.67   1135.26      0  01:25      61.537     0.000
  POND-L3-C               0.17   1030.26      0  01:40       0.310     0.000
  POND-L3A               38.50   4956.30      1  11:40     544.074     0.000
  POND-L4                35.75 163896.77      0  09:05    2947.976     0.000
  POND-L4-1              47.33   7211.76      0  00:55     657.858     0.000
  POND-L4-1A             39.17   2187.85      0  05:45     211.657     0.000
  POND-L6                30.83   3525.28      1  21:45      99.836     0.000
  POND-L8                47.42   1503.68      0  08:20     239.732     0.000
  POND-L8-A              40.67   3184.99      0  01:10      78.897     0.000
  POND-LC1-A             47.33  18141.33      0  02:05     827.339     0.000
  
  
  **********************
  Storage Volume Summary
  **********************
  
  --------------------------------------------------------------------------------------------------
                         Average     Avg  Evap Exfil       Maximum     Max    Time of Max    Maximum
                          Volume    Pcnt  Pcnt  Pcnt        Volume    Pcnt     Occurrence    Outflow
  Storage Unit           1000 m3    Full  Loss  Loss       1000 m3    Full    days hr:min        LPS
  --------------------------------------------------------------------------------------------------
  POND-DP-2                0.000       0     0     0         0.000       0       0  00:00    4178.25
  POND-L10-1               0.000       0     0     0         0.000       0       0  00:00    7700.65
  POND-L3-1                0.000       0     0     0         0.000       0       0  00:00    2250.53
  POND-L3-C                0.000       0     0     0         0.000       0       0  00:00   17878.69
  POND-L3A                 0.000       0     0     0         0.000       0       0  00:00    5599.27
  POND-L4                  0.000       0     0     0         0.000       0       0  00:00  113149.84
  POND-L4-1                0.000       0     0     0         0.000       0       0  00:00     568.24
  POND-L4-1A               0.000       0     0     0         0.000       0       0  00:00    3368.43
  POND-L6                  0.000       0     0     0         0.000       0       0  00:00     427.32
  POND-L6-A                0.000       0     0     0         0.000       0       0  00:00    5548.38
  POND-L8                  0.000       0     0     0         0.000       0       0  00:00       0.03
  POND-L8-A                0.000       0     0     0         0.000       0       0  00:00    4661.02
  POND-LC1-A               0.000       0     0     0         0.000       0       0  00:00    9634.58
  
  
  ***********************
  Outfall Loading Summary
  ***********************
  
  -----------------------------------------------------------
                         Flow       Avg       Max       Total
                         Freq      Flow      Flow      Volume
  Outfall Node           Pcnt       LPS       LPS    10^6 ltr
  -----------------------------------------------------------
  OFALL-10              97.92     38.70    144.18       6.548
  OUT-DP-2              49.48   2634.39   4178.25     225.209
  OUT-L10-1              9.03   6442.34   7700.65     100.500
  OUT-L3-1              49.83   4173.93   8432.34     359.376
  OUT-L3-C              49.13   9672.36  20146.60     821.184
  OUT-L3A               52.26   1169.56   5599.27     105.153
  OUT-L4                47.92  70385.46 139847.79    5817.654
  OUT-L4-1              49.65    567.50    568.24      48.607
  OUT-L4-1A             49.13   7101.30   7559.15     602.901
  OUT-L6                86.81    548.30   3495.04      82.245
  OUT-L6-A              49.48   3652.60   5548.38     312.218
  OUT-LB-8              98.78    705.47   1132.05     120.319
  OUT-LC1-A             49.48  14252.40  14950.54    1218.580
  -----------------------------------------------------------
  System                56.84 121344.34 181199.72    9820.495
  
  
  ********************
  Link Flow Summary
  ********************
  
  -----------------------------------------------------------------------------
                                 Maximum  Time of Max   Maximum    Max/    Max/
                                  |Flow|   Occurrence   |Veloc|    Full    Full
  Link                 Type          LPS  days hr:min     m/sec    Flow   Depth
  -----------------------------------------------------------------------------
  10847                CONDUIT   7962.94     0  09:50    >50.00   17.37    1.00
  10848                CONDUIT  50060.85     0  04:45    >50.00  113.35    1.00
  10849                CONDUIT  51877.76     0  02:20    >50.00  174.33    1.00
  10850                CONDUIT 133808.26     0  08:00    >50.00  448.52    1.00
  11004                CONDUIT   6359.37     0  00:55     39.98   13.47    1.00
  11007                CONDUIT  51944.42     0  04:25    >50.00   18.98    1.00
  11008                CONDUIT  21745.06     0  04:15    >50.00   33.80    1.00
  11009                CONDUIT   2567.47     0  15:15     32.28   12.31    1.00
  11010                CONDUIT  33602.22     0  15:20    >50.00  103.42    1.00
  11037                CONDUIT  14436.01     0  01:45    >50.00   24.06    1.00
  11038                CONDUIT  14406.78     1  04:50    >50.00   23.16    1.00
  11039                CONDUIT   1548.58     0  00:40      9.74    3.53    1.00
  11040                CONDUIT   5078.92     0  00:45    >50.00    9.79    1.00
  11041                CONDUIT  10453.32     0  00:40    >50.00   21.93    1.00
  11042                CONDUIT   5590.22     0  00:40     35.15   11.28    1.00
  11050                CONDUIT  11932.99     0  14:10     13.78    2.95    1.00
  11051                CONDUIT 252813.55     0  04:40    >50.00   62.31    1.00
  11052                CONDUIT 117280.17     0  02:30    >50.00   29.00    1.00
  11056                CONDUIT  34028.29     0  00:55    >50.00   10.46    1.00
  11057                CONDUIT  23380.01     0  03:15     27.00    7.27    1.00
  11058                CONDUIT 107350.88     0  01:30    >50.00   29.55    1.00
  11059                CONDUIT  16116.54     0  01:30     18.61    4.57    1.00
  130                  CONDUIT 204179.76     1  19:50    >50.00   79.47    1.00
  131                  CONDUIT 107224.99     1  07:30    >50.00  137.60    1.00
  133                  CONDUIT 139847.79     0  10:30    >50.00   34.55    1.00
  15210                CONDUIT  37704.99     1  10:20    >50.00   14.12    1.00
  15211                CONDUIT 465247.08     1  09:25    >50.00  173.82    1.00
  15212                CONDUIT 109815.71     1  18:55    >50.00   41.12    1.00
  15214                CONDUIT  67621.62     1  05:25    >50.00   27.27    1.00
  15215                CONDUIT  56297.74     1  21:50    >50.00   22.71    1.00
  15224                CONDUIT   3964.95     0  01:25    >50.00   48.61    1.00
  15225                CONDUIT   8432.34     0  01:35    >50.00   49.50    1.00
  16629                CONDUIT  40532.81     0  21:45    >50.00   47.80    1.00
  16630                CONDUIT 138327.01     0  01:50    >50.00  329.06    1.00
  16679                CONDUIT 131132.47     0  22:10    >50.00  158.90    1.00
  16680                CONDUIT  22349.84     1  02:40    >50.00   26.99    1.00
  16681                CONDUIT  23976.92     1  03:45    >50.00   28.56    1.00
  16682                CONDUIT  21090.84     1  04:45    >50.00   25.45    1.00
  16700                CONDUIT  54080.67     0  04:15    >50.00  154.05    1.00
  169                  CONDUIT 331134.85     1  20:25    >50.00  131.18    1.00
  18755                CONDUIT  17878.69     0  01:30    >50.00   43.90    1.00
  18756                CONDUIT  20146.60     0  01:55    >50.00   51.29    1.00
  2018                 CONDUIT  60428.27     0  16:40    >50.00   21.52    1.00
  21                   CONDUIT  25307.40     0  07:40    >50.00   34.91    1.00
  22                   CONDUIT   7154.84     0  00:40    >50.00   25.57    1.00
  423                  CONDUIT  56630.87     0  16:30    >50.00   23.57    1.00
  4234                 CONDUIT  25598.49     0  01:15     29.56    4.93    1.00
  427                  CONDUIT  51257.66     0  16:55    >50.00   16.31    1.00
  428                  CONDUIT  23244.27     0  00:50    >50.00   10.27    1.00
  428A                 CONDUIT  62965.85     0  00:50    >50.00   27.74    1.00
  4479                 CONDUIT  17027.83     0  02:05    >50.00   56.87    1.00
  789                  CONDUIT  60093.77     0  03:15    >50.00   24.75    1.00
  CDT-13               CONDUIT    144.18     0  08:50      0.79    0.17    0.26
  P-STMPIP-000002      CONDUIT   3495.04     1  19:15    >50.00   12.21    1.00
  P-STMPIP-000003      CONDUIT    107.73     0  09:45      1.80    0.64    0.79
  P-STMPIP-000004      CONDUIT    122.55     0  07:20      1.79    1.20    1.00
  P-STMPIP-000005      CONDUIT    279.46     0  08:35     11.20    0.99    1.00
  P-STMPIP-000006      CONDUIT      0.00     0  00:00      0.00    0.00    0.50
  P-STMPIP-000008      CONDUIT    172.69     0  09:35      1.82    1.07    0.84
  P-STMPIP-000010      CONDUIT    294.12     0  09:35      3.37    0.80    0.84
  P-STMPIP-000011      CONDUIT     43.81     0  08:35      0.89    0.39    0.72
  P-STMPIP-000012      CONDUIT    332.15     0  08:45      4.85    0.97    1.00
  P-STMPIP-000013      CONDUIT      0.00     0  00:00      0.00    0.00    0.50
  P-STMPIP-000014      CONDUIT   3824.96     0  02:10     48.10   14.26    1.00
  P-STMPIP-000017      CONDUIT   4722.82     1  07:50     49.25   21.23    1.00
  P-STMPIP-000018      CONDUIT   3254.35     0  04:50    >50.00   11.95    1.00
  P-STMPIP-000019      CONDUIT   7700.65     1  16:05    >50.00   15.42    1.00
  P-STMPIP-000020      CONDUIT    139.27     0  17:15      3.35    1.02    1.00
  P-STMPIP-000024      CONDUIT   4925.20     1  11:30     35.48   29.30    1.00
  P-STMPIP-000026      CONDUIT    475.24     0  01:50      2.99    4.12    1.00
  P-STMPIP-000027      CONDUIT    112.76     0  07:35      1.60    1.00    1.00
  P-STMPIP-000028      CONDUIT    686.78     0  00:40      4.32    1.43    1.00
  P-STMPIP-000029      CONDUIT   3514.42     0  08:20     22.10   10.06    1.00
  P-STMPIP-000030      CONDUIT   1132.05     0  00:40      7.12    1.66    1.00
  P-STMPIP-000032      CONDUIT   2705.04     0  17:20     38.27   17.51    1.00
  P-STMPIP-000036      CONDUIT   9831.27     1  12:50    >50.00   14.80    1.00
  P-STMPIP-000037      CONDUIT   4375.69     0  05:45    >50.00   19.78    1.00
  P-STMPIP-000038      CONDUIT  10666.53     1  17:00    >50.00   40.89    1.00
  P-STMPIP-000039      CONDUIT     28.84     0  08:35      0.62    0.30    0.69
  P-STMPIP-000040      CONDUIT    124.07     0  08:35      2.18    1.01    0.80
  P-STMPIP-000041      CONDUIT   2270.53     0  01:25     28.55   20.23    1.00
  P-STMPIP-000042      CONDUIT    495.76     0  02:00      9.77    6.72    1.00
  P-STMPIP-000043      CONDUIT   1906.40     0  03:00     18.00   11.16    1.00
  P-STMPIP-000045      CONDUIT   8226.54     1  08:35    >50.00   48.95    1.00
  P-STMPIP-000046      CONDUIT   5292.03     0  18:45    >50.00   25.72    1.00
  P-STMPIP-000052      CONDUIT    121.61     0  09:40      2.15    0.75    0.75
  P-STMPIP-000054      CONDUIT      0.00     0  00:00      0.00    0.00    0.00
  P-STMPIP-000055      CONDUIT   7650.16     0  06:15    >50.00   29.47    1.00
  P-STMPIP-000057      CONDUIT    126.32     0  08:35      2.93    0.67    0.80
  P-STMPIP-000059      CONDUIT   9721.48     0  01:35    >50.00   18.60    1.00
  P-STMPIP-000060      CONDUIT    639.29     0  00:40      4.97    2.31    1.00
  P-STMPIP-000065      CONDUIT   3542.44     1  10:25     47.30   34.27    1.00
  P-STMPIP-000066      CONDUIT   8722.04     0  05:10    >50.00   84.98    1.00
  P-STMPIP-000068      CONDUIT   3919.18     0  01:10     33.76   14.45    1.00
  P-STMPIP-000069      CONDUIT   3007.37     0  08:20     37.81    8.22    1.00
  P-STMPIP-000070      CONDUIT      0.03     0  00:40      0.00    0.00    1.00
  P-STMPIP-000071      CONDUIT   1777.32     1  23:45     22.66   16.87    1.00
  P-STMPIP-000072      CONDUIT   5844.68     1  20:45    >50.00   16.32    1.00
  P-STMPIP-000073      CONDUIT   5548.38     0  07:10    >50.00   11.36    0.50
  P-STMPIP-000074      CONDUIT  14950.54     0  00:50    >50.00   24.17    1.00
  P-STMPIP-000075      CONDUIT   3147.98     0  04:55    >50.00   43.66    1.00
  P-STMPIP-000076      CONDUIT   3368.43     1  02:55    >50.00   21.73    1.00
  P-STMPIP-000077      CONDUIT   1383.25     0  05:50     39.13    9.87    1.00
  P-STMPIP-000078      CONDUIT   7559.15     0  05:45    >50.00   23.44    1.00
  P-STMPIP-000079      CONDUIT  14671.13     0  00:55    >50.00   17.57    1.00
  P-STMPIP-000080      CONDUIT    568.24     0  08:10      5.14    1.20    1.00
  P-STMPIP-000081      CONDUIT   4178.25     0  05:50    >50.00   30.61    0.50
  P-STMPIP-000082      CONDUIT   2250.50     0  01:30     40.75   18.90    0.50
  P-STMPIP-000083      CONDUIT   5599.27     1  14:00    >50.00   20.06    1.00
  P-STMPIP-000084      CONDUIT  27643.61     1  09:05    >50.00   21.11    1.00
  P-STMPIP-000085      CONDUIT  19889.73     0  00:40    >50.00    7.73    1.00
  P-STMPIP-000086      CONDUIT   4661.02     1  14:40     46.58   23.12    1.00
  
  
  ***************************
  Flow Classification Summary
  ***************************
  
  -------------------------------------------------------------------------------------
                      Adjusted    ---------- Fraction of Time in Flow Class ---------- 
                       /Actual         Up    Down  Sub   Sup   Up    Down  Norm  Inlet 
  Conduit               Length    Dry  Dry   Dry   Crit  Crit  Crit  Crit  Ltd   Ctrl  
  -------------------------------------------------------------------------------------
  10847                   1.00   0.18  0.01  0.00  0.41  0.40  0.00  0.00  0.15  0.00
  10848                   1.00   0.02  0.00  0.00  0.77  0.21  0.00  0.00  0.18  0.00
  10849                   1.00   0.04  0.00  0.00  0.72  0.04  0.00  0.20  0.01  0.00
  10850                   1.00   0.03  0.00  0.00  0.17  0.81  0.00  0.00  0.01  0.00
  11004                   1.00   0.02  0.01  0.00  0.96  0.01  0.00  0.00  0.00  0.00
  11007                   1.00   0.02  0.58  0.00  0.40  0.00  0.00  0.00  0.01  0.00
  11008                   1.00   0.22  0.02  0.00  0.35  0.00  0.00  0.41  0.12  0.00
  11009                   1.00   0.02  0.00  0.00  0.23  0.76  0.00  0.00  0.00  0.00
  11010                   1.00   0.01  0.00  0.00  0.97  0.01  0.00  0.00  0.00  0.00
  11037                   1.00   0.01  0.02  0.00  0.97  0.00  0.00  0.00  0.00  0.00
  11038                   1.00   0.03  0.54  0.00  0.43  0.00  0.00  0.00  0.05  0.00
  11039                   1.00   0.01  0.00  0.00  0.49  0.49  0.00  0.00  0.00  0.00
  11040                   1.00   0.01  0.00  0.00  0.99  0.00  0.00  0.00  0.00  0.00
  11041                   1.00   0.50  0.00  0.00  0.50  0.00  0.00  0.00  0.00  0.00
  11042                   1.00   0.51  0.00  0.00  0.49  0.00  0.00  0.00  0.00  0.00
  11050                   1.00   0.02  0.01  0.00  0.96  0.01  0.00  0.00  0.01  0.00
  11051                   1.00   0.01  0.00  0.00  0.96  0.02  0.00  0.00  0.02  0.00
  11052                   1.00   0.02  0.00  0.00  0.97  0.02  0.00  0.00  0.00  0.00
  11056                   1.00   0.02  0.00  0.00  0.96  0.00  0.00  0.02  0.01  0.00
  11057                   1.00   0.02  0.00  0.00  0.97  0.01  0.00  0.00  0.00  0.00
  11058                   1.00   0.01  0.00  0.00  0.97  0.02  0.00  0.01  0.01  0.00
  11059                   1.00   0.02  0.00  0.00  0.97  0.01  0.00  0.00  0.00  0.00
  130                     1.00   0.02  0.00  0.00  0.48  0.49  0.00  0.00  0.01  0.00
  131                     1.00   0.06  0.00  0.00  0.53  0.00  0.30  0.11  0.00  0.00
  133                     1.00   0.47  0.00  0.00  0.48  0.05  0.00  0.00  0.42  0.00
  15210                   1.00   0.41  0.02  0.00  0.26  0.01  0.00  0.30  0.03  0.00
  15211                   1.00   0.01  0.00  0.00  0.51  0.48  0.00  0.00  0.00  0.00
  15212                   1.00   0.03  0.00  0.00  0.71  0.26  0.00  0.00  0.02  0.00
  15214                   1.00   0.08  0.00  0.00  0.65  0.27  0.00  0.00  0.11  0.00
  15215                   1.00   0.11  0.07  0.00  0.59  0.23  0.00  0.00  0.05  0.00
  15224                   1.00   0.01  0.00  0.00  0.49  0.49  0.00  0.00  0.01  0.00
  15225                   1.00   0.50  0.00  0.00  0.50  0.00  0.00  0.00  0.00  0.00
  16629                   1.00   0.05  0.00  0.00  0.66  0.30  0.00  0.00  0.18  0.00
  16630                   1.00   0.01  0.00  0.00  0.41  0.23  0.00  0.35  0.00  0.00
  16679                   1.00   0.02  0.00  0.00  0.22  0.77  0.00  0.00  0.01  0.00
  16680                   1.00   0.03  0.00  0.00  0.91  0.07  0.00  0.00  0.00  0.00
  16681                   1.00   0.03  0.00  0.00  0.89  0.08  0.00  0.00  0.02  0.00
  16682                   1.00   0.04  0.00  0.00  0.68  0.29  0.00  0.00  0.03  0.00
  16700                   1.00   0.15  0.00  0.00  0.68  0.17  0.00  0.00  0.00  0.00
  169                     1.00   0.02  0.00  0.00  0.61  0.37  0.00  0.00  0.00  0.00
  18755                   1.00   0.01  0.00  0.00  0.98  0.01  0.00  0.00  0.00  0.00
  18756                   1.00   0.49  0.01  0.00  0.50  0.00  0.00  0.00  0.48  0.00
  2018                    1.00   0.02  0.31  0.00  0.59  0.08  0.00  0.00  0.00  0.00
  21                      1.00   0.01  0.58  0.00  0.41  0.00  0.00  0.00  0.02  0.00
  22                      1.00   0.01  0.00  0.00  0.49  0.00  0.00  0.49  0.00  0.00
  423                     1.00   0.02  0.08  0.00  0.50  0.41  0.00  0.00  0.00  0.00
  4234                    1.00   0.01  0.01  0.00  0.97  0.00  0.00  0.01  0.00  0.00
  427                     1.00   0.01  0.42  0.00  0.57  0.00  0.00  0.00  0.00  0.00
  428                     1.00   0.01  0.00  0.00  0.50  0.49  0.00  0.00  0.00  0.00
  428A                    1.00   0.01  0.49  0.00  0.00  0.00  0.00  0.49  0.00  0.00
  4479                    1.00   0.01  0.00  0.00  0.19  0.01  0.00  0.79  0.00  0.00
  789                     1.00   0.02  0.00  0.00  0.66  0.00  0.00  0.32  0.00  0.00
  CDT-13                  1.00   0.01  0.00  0.00  0.99  0.00  0.00  0.00  0.00  0.00
  P-STMPIP-000002         1.00   0.08  0.05  0.00  0.87  0.00  0.00  0.00  0.00  0.00
  P-STMPIP-000003         1.00   0.01  0.00  0.00  0.72  0.27  0.00  0.00  0.98  0.00
  P-STMPIP-000004         1.00   0.01  0.00  0.00  0.38  0.61  0.00  0.00  0.56  0.00
  P-STMPIP-000005         1.00   0.01  0.00  0.00  0.31  0.67  0.00  0.00  0.64  0.00
  P-STMPIP-000006         1.00   0.13  0.88  0.00  0.00  0.00  0.00  0.00  0.00  0.00
  P-STMPIP-000008         1.00   0.01  0.00  0.00  0.07  0.92  0.00  0.00  0.00  0.00
  P-STMPIP-000010         1.00   0.01  0.00  0.00  0.00  0.98  0.00  0.00  0.84  0.00
  P-STMPIP-000011         1.00   0.01  0.00  0.00  0.98  0.01  0.00  0.00  0.98  0.00
  P-STMPIP-000012         1.00   0.01  0.00  0.00  0.57  0.41  0.00  0.00  0.68  0.00
  P-STMPIP-000013         1.00   0.54  0.46  0.00  0.00  0.00  0.00  0.00  0.00  0.00
  P-STMPIP-000014         1.00   0.12  0.00  0.00  0.18  0.70  0.00  0.00  0.00  0.00
  P-STMPIP-000017         1.00   0.04  0.20  0.00  0.56  0.20  0.00  0.00  0.34  0.00
  P-STMPIP-000018         1.00   0.12  0.09  0.00  0.13  0.67  0.00  0.00  0.01  0.00
  P-STMPIP-000019         1.00   0.10  0.81  0.00  0.09  0.00  0.00  0.00  0.00  0.00
  P-STMPIP-000020         1.00   0.01  0.00  0.00  0.95  0.03  0.00  0.00  0.72  0.00
  P-STMPIP-000024         1.00   0.09  0.02  0.00  0.49  0.40  0.00  0.00  0.06  0.00
  P-STMPIP-000026         1.00   0.01  0.00  0.00  0.98  0.00  0.00  0.00  0.01  0.00
  P-STMPIP-000027         1.00   0.01  0.01  0.00  0.42  0.56  0.00  0.00  0.73  0.00
  P-STMPIP-000028         1.00   0.01  0.00  0.00  0.99  0.00  0.00  0.00  0.00  0.00
  P-STMPIP-000029         1.00   0.01  0.49  0.00  0.49  0.00  0.00  0.00  0.00  0.00
  P-STMPIP-000030         1.00   0.01  0.00  0.00  0.99  0.00  0.00  0.00  0.00  0.00
  P-STMPIP-000032         1.00   0.01  0.13  0.00  0.54  0.31  0.00  0.00  0.41  0.00
  P-STMPIP-000036         1.00   0.06  0.46  0.00  0.46  0.02  0.00  0.00  0.00  0.00
  P-STMPIP-000037         1.00   0.02  0.00  0.00  0.57  0.41  0.00  0.00  0.00  0.00
  P-STMPIP-000038         1.00   0.01  0.00  0.00  0.90  0.09  0.00  0.00  0.01  0.00
  P-STMPIP-000039         1.00   0.01  0.00  0.00  0.98  0.00  0.00  0.00  0.98  0.00
  P-STMPIP-000040         1.00   0.01  0.00  0.00  0.02  0.97  0.00  0.00  0.00  0.00
  P-STMPIP-000041         1.00   0.01  0.00  0.00  0.32  0.67  0.00  0.00  0.00  0.00
  P-STMPIP-000042         1.00   0.01  0.01  0.00  0.97  0.01  0.00  0.00  0.52  0.00
  P-STMPIP-000043         1.00   0.02  0.01  0.00  0.90  0.06  0.00  0.00  0.05  0.00
  P-STMPIP-000045         1.00   0.02  0.00  0.00  0.86  0.11  0.00  0.00  0.08  0.00
  P-STMPIP-000046         1.00   0.10  0.31  0.00  0.36  0.00  0.00  0.24  0.10  0.00
  P-STMPIP-000052         1.00   0.01  0.00  0.00  0.01  0.98  0.00  0.00  0.97  0.00
  P-STMPIP-000054         1.00   1.00  0.00  0.00  0.00  0.00  0.00  0.00  0.00  0.00
  P-STMPIP-000055         1.00   0.05  0.49  0.00  0.45  0.01  0.00  0.00  0.21  0.00
  P-STMPIP-000057         1.00   0.01  0.00  0.00  0.41  0.08  0.00  0.49  0.46  0.00
  P-STMPIP-000059         1.00   0.01  0.08  0.00  0.91  0.00  0.00  0.00  0.00  0.00
  P-STMPIP-000060         1.00   0.01  0.00  0.00  0.49  0.49  0.00  0.00  0.00  0.00
  P-STMPIP-000065         1.00   0.13  0.01  0.00  0.62  0.24  0.00  0.00  0.34  0.00
  P-STMPIP-000066         1.00   0.17  0.00  0.00  0.61  0.22  0.00  0.00  0.15  0.00
  P-STMPIP-000068         1.00   0.06  0.00  0.00  0.10  0.84  0.00  0.00  0.00  0.00
  P-STMPIP-000069         1.00   0.51  0.00  0.00  0.49  0.00  0.00  0.00  0.00  0.00
  P-STMPIP-000070         1.00   0.01  0.00  0.00  0.00  0.99  0.00  0.00  0.00  0.00
  P-STMPIP-000071         1.00   0.02  0.00  0.00  0.09  0.89  0.00  0.00  0.00  0.00
  P-STMPIP-000072         1.00   0.07  0.00  0.00  0.20  0.73  0.00  0.00  0.12  0.00
  P-STMPIP-000073         1.00   0.51  0.00  0.00  0.49  0.00  0.00  0.00  0.00  0.00
  P-STMPIP-000074         1.00   0.51  0.00  0.00  0.49  0.00  0.00  0.00  0.00  0.00
  P-STMPIP-000075         1.00   0.24  0.01  0.00  0.41  0.35  0.00  0.00  0.02  0.00
  P-STMPIP-000076         1.00   0.09  0.75  0.00  0.16  0.01  0.00  0.00  0.00  0.00
  P-STMPIP-000077         1.00   0.01  0.08  0.00  0.49  0.42  0.00  0.00  0.00  0.00
  P-STMPIP-000078         1.00   0.51  0.00  0.00  0.49  0.00  0.00  0.00  0.00  0.00
  P-STMPIP-000079         1.00   0.01  0.49  0.00  0.49  0.00  0.00  0.00  0.00  0.00
  P-STMPIP-000080         1.00   0.50  0.00  0.00  0.50  0.00  0.00  0.00  0.00  0.00
  P-STMPIP-000081         1.00   0.51  0.00  0.00  0.49  0.00  0.00  0.00  0.00  0.00
  P-STMPIP-000082         1.00   0.01  0.00  0.00  0.01  0.98  0.00  0.00  0.00  0.00
  P-STMPIP-000083         1.00   0.08  0.40  0.00  0.52  0.00  0.00  0.00  0.00  0.00
  P-STMPIP-000084         1.00   0.02  0.58  0.00  0.39  0.00  0.00  0.00  0.19  0.00
  P-STMPIP-000085         1.00   0.01  0.49  0.00  0.48  0.00  0.00  0.01  0.49  0.00
  P-STMPIP-000086         1.00   0.05  0.01  0.00  0.09  0.85  0.00  0.00  0.01  0.00
  
  
  *************************
  Conduit Surcharge Summary
  *************************
  
  ----------------------------------------------------------------------------
                                                           Hours        Hours 
                         --------- Hours Full --------   Above Full   Capacity
  Conduit                Both Ends  Upstream  Dnstream   Normal Flow   Limited
  ----------------------------------------------------------------------------
  10847                      10.00     36.83     18.17     29.67         2.50
  10848                      28.33     37.50     36.83     28.50         1.75
  10849                      41.08     41.92     46.00     42.50        38.75
  10850                       4.83     10.08     41.92      7.75         1.92
  11004                      46.67     47.17     46.75     33.33        32.33
  11007                       9.83     10.00     46.67     18.67         0.25
  11008                      31.50     34.42     39.25     28.92        23.58
  11009                      10.67     46.75     11.17     40.00         3.08
  11010                      46.25     46.75     46.75     43.25        34.08
  11037                      46.08     46.08     47.33      1.33         0.01
  11038                      11.75     11.75     46.00     19.92         0.01
  11039                       0.01     47.25      0.17     47.33         0.01
  11040                      47.25     47.33     47.33     42.00        23.50
  11041                      23.67     23.75     47.33     23.75         0.01
  11042                       0.08      0.08     47.42     23.75         0.01
  11050                      23.08     23.67     46.50     44.75        22.58
  11051                      22.67     46.33     23.67     45.58         0.01
  11052                      45.00     46.00     46.00     46.42        44.67
  11056                      46.17     46.42     47.00     23.17        45.00
  11057                      46.33     47.25     46.42     45.83        45.17
  11058                      46.33     46.42     47.00     46.25        45.17
  11059                      46.25     47.17     46.50     24.67        45.83
  130                        15.08     35.83     24.92     23.75         5.17
  131                        41.17     42.58     46.00     27.83        22.08
  133                         0.01     23.00      0.01     23.00         0.01
  15210                      13.58     15.17     45.33     26.25        12.08
  15211                      11.67     38.75     15.17     36.33         3.83
  15212                      25.83     30.92     38.75     28.58        16.58
  15214                      16.25     27.58     30.92     26.67         9.83
  15215                      18.83     28.75     33.50     28.67        11.75
  15224                       0.25     47.17      0.50     47.00         0.08
  15225                       0.01      0.50      0.01     23.92         0.01
  16629                      11.75     30.17     25.58     24.67         7.58
  16630                      24.50     33.75     35.17     33.42        15.25
  16679                       7.58     10.67     43.75      8.67         1.83
  16680                      40.58     43.75     43.17     40.75         5.58
  16681                      38.58     43.17     41.17     40.17        34.33
  16682                      26.00     41.17     30.17     32.17        22.58
  16700                      19.75     25.58     33.75     34.00        15.58
  169                        19.33     35.17     28.75     29.08         6.25
  18755                       0.08     46.75      0.25     46.25         0.01
  18756                       0.25      0.25     46.67     23.33         0.17
  2018                       43.42     47.33     43.42     26.50        11.58
  21                         10.75     10.83     47.33     19.00         0.75
  22                         42.58     47.08     42.67     43.58        42.50
  423                        19.83     43.25     23.83     15.33        16.00
  4234                       45.75     46.00     47.08      1.83         0.75
  427                        23.67     23.67     47.33     19.75         0.01
  428                        23.83     47.42     23.83     31.58        23.67
  428A                        0.17     23.83     23.75     23.83         0.08
  4479                       44.00     47.17     44.25     42.83         2.17
  789                        46.17     46.92     46.58     37.75        42.83
  P-STMPIP-000002             0.17     41.17      2.25     41.58         0.01
  P-STMPIP-000003             0.01      0.01     14.33      0.01         0.01
  P-STMPIP-000004             7.08     14.33      7.25     14.08         6.92
  P-STMPIP-000005             5.50      5.75     21.33      0.01         0.17
  P-STMPIP-000008             0.01      2.75      0.01      3.17         0.01
  P-STMPIP-000010             0.01      0.01      2.50      0.01         0.01
  P-STMPIP-000011             0.01      0.01      3.17      0.01         0.01
  P-STMPIP-000012             2.50      2.50     39.17      0.01         0.01
  P-STMPIP-000014             1.42     38.58      6.83      7.08         1.00
  P-STMPIP-000017             6.67     15.00     27.92     18.25         1.42
  P-STMPIP-000018             0.01     26.67      3.58      2.83         0.01
  P-STMPIP-000019             0.33     45.33      0.33      4.33         0.25
  P-STMPIP-000020            10.75     10.75     45.92      6.42         3.50
  P-STMPIP-000024            15.92     39.25     19.58     35.67        14.00
  P-STMPIP-000026            25.08     25.17     46.75     16.25        17.17
  P-STMPIP-000027            10.33     10.33     19.25      0.01         0.01
  P-STMPIP-000028            45.83     45.83     47.42      0.92         0.01
  P-STMPIP-000029            23.67     23.67     47.42     23.75         0.01
  P-STMPIP-000030            47.42     47.42     47.42     47.42        47.42
  P-STMPIP-000032             6.08      6.42     22.00      6.42         0.01
  P-STMPIP-000036             0.50     18.08     24.50     20.08         0.25
  P-STMPIP-000037             7.17     45.17      7.92     19.75         0.01
  P-STMPIP-000038            39.08     42.17     42.92      9.00        17.00
  P-STMPIP-000039             0.01      0.01      2.83      0.01         0.01
  P-STMPIP-000040             0.01      2.83      0.01      1.75         0.01
  P-STMPIP-000041             0.08     46.75      0.08     23.50         0.01
  P-STMPIP-000042            19.25     19.25     32.25     10.08         3.58
  P-STMPIP-000043            33.00     34.42     40.92      4.25         0.92
  P-STMPIP-000045            33.50     40.42     35.67     35.92         2.42
  P-STMPIP-000046            11.67     12.25     32.92     15.50         0.01
  P-STMPIP-000055            14.33     14.92     43.25     17.50         0.01
  P-STMPIP-000057             0.01      0.01     23.67      0.01         0.01
  P-STMPIP-000059            42.00     42.00     47.33     43.67         0.17
  P-STMPIP-000060            23.67     47.42     23.67     47.42        23.67
  P-STMPIP-000065             6.08     15.58     18.08     17.00         2.75
  P-STMPIP-000066             7.75     18.08     15.00     21.33         2.25
  P-STMPIP-000068             2.58     42.92      5.08     40.67         2.08
  P-STMPIP-000069             0.01     23.67     23.75     23.75         0.01
  P-STMPIP-000070             0.08      0.08     47.42      0.01         0.08
  P-STMPIP-000071             0.42      3.50     41.17      5.25         0.42
  P-STMPIP-000072             0.17     19.50      5.50     19.58         0.01
  P-STMPIP-000073             0.01     28.83      0.01     22.58         0.01
  P-STMPIP-000074            23.83     47.33     23.83     23.75         0.17
  P-STMPIP-000075             9.50     22.00     22.42     26.92         9.08
  P-STMPIP-000076            42.83     46.92     42.92      7.50         7.08
  P-STMPIP-000077            19.50     42.92     19.83     23.08        19.50
  P-STMPIP-000078             0.01     23.42     23.75     23.50         0.01
  P-STMPIP-000079             0.25     23.75     23.83     23.58         0.01
  P-STMPIP-000080            23.83     47.33     23.83     23.83        23.83
  P-STMPIP-000081             0.01     34.00      0.01     23.08         0.01
  P-STMPIP-000082             0.01      0.17     47.08      0.17         0.01
  P-STMPIP-000083            18.67     47.33     18.75     25.08         1.58
  P-STMPIP-000084             1.58      1.58     46.50     17.83         0.01
  P-STMPIP-000085            23.67     23.75     47.33     23.75        23.67
  P-STMPIP-000086             0.33      5.25     42.42      4.50         0.08
  

  Analysis begun on:  Wed Jan 02 04:45:04 2019
  Analysis ended on:  Wed Jan 02 04:45:04 2019
  Total elapsed time: < 1 sec