
  EPA STORM WATER MANAGEMENT MODEL - VERSION 5.1 (Build 5.1.012)
  --------------------------------------------------------------

  WARNING 02: maximum depth increased for Node 4172
  
  *********************************************************
  NOTE: The summary statistics displayed in this report are
  based on results found at every computational time step,  
  not just on results from each reporting time step.
  *********************************************************
  
  ****************
  Analysis Options
  ****************
  Flow Units ............... LPS
  Process Models:
    Rainfall/Runoff ........ YES
    RDII ................... NO
    Snowmelt ............... NO
    Groundwater ............ NO
    Flow Routing ........... YES
    Ponding Allowed ........ YES
    Water Quality .......... NO
  Infiltration Method ...... HORTON
  Flow Routing Method ...... DYNWAVE
  Starting Date ............ 01/01/2002 00:00:00
  Ending Date .............. 01/03/2002 00:00:00
  Antecedent Dry Days ...... 5.0
  Report Time Step ......... 00:05:00
  Wet Time Step ............ 00:05:00
  Dry Time Step ............ 01:00:00
  Routing Time Step ........ 300.00 sec
  Variable Time Step ....... NO
  Maximum Trials ........... 8
  Number of Threads ........ 1
  Head Tolerance ........... 0.001500 m
  
  
  **************************        Volume         Depth
  Runoff Quantity Continuity     hectare-m            mm
  **************************     ---------       -------
  Total Precipitation ......        34.321        83.420
  Evaporation Loss .........         0.797         1.936
  Infiltration Loss ........         0.318         0.774
  Surface Runoff ...........        30.707        74.635
  Final Storage ............         2.501         6.079
  Continuity Error (%) .....        -0.005
  
  
  **************************        Volume        Volume
  Flow Routing Continuity        hectare-m      10^6 ltr
  **************************     ---------     ---------
  Dry Weather Inflow .......         0.000         0.000
  Wet Weather Inflow .......        30.704       307.042
  Groundwater Inflow .......         0.000         0.000
  RDII Inflow ..............         0.000         0.000
  External Inflow ..........         0.000         0.000
  External Outflow .........         1.#IO         1.#IO
  Flooding Loss ............         1.#IO         1.#IO
  Evaporation Loss .........         0.000         0.000
  Exfiltration Loss ........         0.000         0.000
  Initial Stored Volume ....         0.000         0.000
  Final Stored Volume ......        -1.#IO        -1.#IO
  Continuity Error (%) .....        -1.#IO
  
  
  *************************
  Highest Continuity Errors
  *************************
  Node 2790 (-1.#J%)
  Node 4747 (-1.#J%)
  Node 24566 (-2158750034.34%)
  Node 232234 (-33507508.89%)
  Node 22755 (-12027.13%)
  
  
  ********************************
  Highest Flow Instability Indexes
  ********************************
  Link P-STMPIP-000073 (148)
  Link P-STMPIP-000081 (148)
  Link P-STMPIP-000080 (124)
  Link P-STMPIP-000019 (124)
  Link P-STMPIP-000002 (122)
  
  
  *************************
  Routing Time Step Summary
  *************************
  Minimum Time Step           :   300.00 sec
  Average Time Step           :   300.00 sec
  Maximum Time Step           :   300.00 sec
  Percent in Steady State     :     0.00
  Average Iterations per Step :     7.93
  Percent Not Converging      :    98.78
  
  
  ***************************
  Subcatchment Runoff Summary
  ***************************
  
  --------------------------------------------------------------------------------------------------------
                            Total      Total      Total      Total      Total       Total     Peak  Runoff
                           Precip      Runon       Evap      Infil     Runoff      Runoff   Runoff   Coeff
  Subcatchment                 mm         mm         mm         mm         mm    10^6 ltr      LPS
  --------------------------------------------------------------------------------------------------------
  DP-2-A                    83.42       0.00       1.93       0.78      75.08       10.61   209.66   0.900
  L10-1-A                   83.42       0.00       1.90       0.67      76.47        4.73   110.93   0.917
  L10-1-B                   83.42       0.00       1.89       0.87      75.61        2.14    49.18   0.906
  L3-1-A                    83.42       0.00       1.94       0.64      76.07        6.23   133.50   0.912
  L3-1-B                    83.42       0.00       1.92       0.50      77.18        3.38    81.57   0.925
  L3-1-C                    83.42       0.00       1.95       0.56      76.50        6.67   146.60   0.917
  L3-1-D                    83.42       0.00       1.95       0.46      77.13        5.60   129.70   0.925
  L3A-A                     83.42       0.00       1.91       1.05      73.70        7.04   134.02   0.884
  L3A-B                     83.42       0.00       1.91       0.99      74.07        7.94   154.49   0.888
  L3A-C                     83.42       0.00       1.92       0.43      77.62        6.18   161.83   0.931
  L3A-D                     83.42       0.00       1.90       1.10      74.01        5.41   109.03   0.887
  L3C-A                     83.42       0.00       1.95       1.05      69.50       28.09   409.80   0.833
  L4-1-A                    83.42       0.00       1.96       0.64      75.47       16.97   330.51   0.905
  L4-1-B                    83.42       0.00       1.90       0.65      76.67        4.36   107.76   0.919
  L4-1-C                    83.42       0.00       1.93       0.72      75.73        8.41   178.68   0.908
  L4-1A-A                   83.42       0.00       1.93       0.62      76.34       11.06   244.95   0.915
  L4-1A-B                   83.42       0.00       1.93       0.56      76.71        8.37   190.82   0.920
  L4-A                      83.42       0.00       1.96       0.68      75.19       19.26   379.87   0.901
  L6-A                      83.42       0.00       1.93       0.91      73.90        9.66   174.36   0.886
  L6-A-A                    83.42       0.00       1.95       0.93      72.11       21.05   358.53   0.864
  L6-B                      83.42       0.00       1.94       0.78      74.94        7.90   154.03   0.898
  L6-C                      83.42       0.00       1.93       0.72      75.71        5.09   107.35   0.908
  L6-D                      83.42       0.00       1.92       0.80      75.27        7.14   147.27   0.902
  L6-E                      83.42       0.00       1.96       0.58      76.25        7.67   163.40   0.914
  L8-A                      83.42       0.00       1.94       0.81      74.80       10.04   194.96   0.897
  L8-A-A                    83.42       0.00       1.95       0.68      75.56        8.58   172.87   0.906
  L8-A-B                    83.42       0.00       1.94       0.72      75.72        6.55   146.22   0.908
  L8-A-C                    83.42       0.00       1.92       0.91      74.53        7.82   153.19   0.893
  L8-A-D                    83.42       0.00       1.94       0.58      76.50        5.48   121.71   0.917
  L8-A-E                    83.42       0.00       1.90       0.82      75.71        3.31    74.36   0.908
  L8-A-F                    83.42       0.00       1.88       0.66      76.86        1.64    43.93   0.921
  L8-B                      83.42       0.00       1.93       0.68      75.96        5.50   118.64   0.911
  LC1-A-A                   83.42       0.00       1.91       0.74      75.96        6.67   149.17   0.911
  LC1-A-B                   83.42       0.00       1.93       1.11      71.55       10.24   163.38   0.858
  LC1-A-C                   83.42       0.00       1.89       0.83      75.75        4.62   106.27   0.908
  LC1-A-D                   83.42       0.00       1.84       0.50      77.80        0.30     8.89   0.933
  LC1-A-E                   83.42       0.00       1.86       0.50      77.70        0.68    19.76   0.931
  LC1-A-F                   83.42       0.00       1.94       0.28      78.17        4.89   125.94   0.937
  LC1-A-G                   83.42       0.00       1.93       0.66      76.07        9.80   214.03   0.912
  
  
  ******************
  Node Depth Summary
  ******************
  
  ---------------------------------------------------------------------------------
                                 Average  Maximum  Maximum  Time of Max    Reported
                                   Depth    Depth      HGL   Occurrence   Max Depth
  Node                 Type       Meters   Meters   Meters  days hr:min      Meters
  ---------------------------------------------------------------------------------
  1416                 JUNCTION    -1.#J  15658065899624956000000000000000000000000000000000000000000000000000000000000000000000000000000000000000000000000000000000000000000000000000000000000000000000000000000000000000000000000000000000000000000000000000000000000000000000000000000000000000000000000000000000000000000000000000000000000000000000.00  15658065899624956000000000000000000000000000000000000000000000000000000000000000000000000000000000000000000000000000000000000000000000000000000000000000000000000000000000000000000000000000000000000000000000000000000000000000000000000000000000000000000000000000000000000000000000000000000000000000000000.00     0  03:25       -1.#J
  1429                 JUNCTION    -1.#J  4010434849996811300000000000000000000000000000000000000000000000000000000000000000000000000000000000000000000000000000000000000000000000000000000000000000000000000000000000000000000000000000000000000000000000000000000000000000000000000000000000000000000000000000000000000000000000000000000000000000000.00  4010434849996811300000000000000000000000000000000000000000000000000000000000000000000000000000000000000000000000000000000000000000000000000000000000000000000000000000000000000000000000000000000000000000000000000000000000000000000000000000000000000000000000000000000000000000000000000000000000000000000.00     0  03:45       -1.#J
  22717                JUNCTION  515654076243473840000000000000000000000000000000000000000000000000000000000000000000000000000000000000000000000000000000000000000000000000000000000000000000000000000000000000000000000000000000000000000000000000000000000000000000000000000000000000000000000000000000000000000000000000000000000.00  297016742860815440000000000000000000000000000000000000000000000000000000000000000000000000000000000000000000000000000000000000000000000000000000000000000000000000000000000000000000000000000000000000000000000000000000000000000000000000000000000000000000000000000000000000000000000000000000000000.00  297016742860815440000000000000000000000000000000000000000000000000000000000000000000000000000000000000000000000000000000000000000000000000000000000000000000000000000000000000000000000000000000000000000000000000000000000000000000000000000000000000000000000000000000000000000000000000000000000000.00     0  03:35        1.#J
  22755                JUNCTION     4.27    71.70    87.17     0  03:25       71.70
  22756                JUNCTION    21.63   919.39   933.79     0  02:15      919.39
  232234               JUNCTION  1575260445098848100000000000000000000000000000000000000000000000000000000000000000000000000000000000000000000000000000000000000000000000000000000.00  907350016376936340000000000000000000000000000000000000000000000000000000000000000000000000000000000000000000000000000000000000000000000000000000000.00  907350016376936340000000000000000000000000000000000000000000000000000000000000000000000000000000000000000000000000000000000000000000000000000000000.00     0  02:10        1.#J
  232239               JUNCTION    -1.#J  43257380529512274000000000000000000000000000000000000000000000000000000000000000000000000000000000000000000000000000000000000000000000000000000000.00  43257380529512274000000000000000000000000000000000000000000000000000000000000000000000000000000000000000000000000000000000000000000000000000000000.00     0  02:10       -1.#J
  232243               JUNCTION    -1.#J  124156563283188250000000000000000000000000000000000000000000000000000000000000000000000000000000000000000000000000000000000000000000000000000000000000000000000000000000000000.00  124156563283188250000000000000000000000000000000000000000000000000000000000000000000000000000000000000000000000000000000000000000000000000000000000000000000000000000000000000.00     0  02:30       -1.#J
  232250               JUNCTION    -1.#J  1099942787616642100000000000000000000000000000000000000000000000000000000000000000000000000000000000000000000000000000000000000000000000000000000000000000000000000000000000000000000000000000000000000000000000000000000000000000000000000000000000000000000000000000000000000000000000000000000000000000000000.00  1099942787616642100000000000000000000000000000000000000000000000000000000000000000000000000000000000000000000000000000000000000000000000000000000000000000000000000000000000000000000000000000000000000000000000000000000000000000000000000000000000000000000000000000000000000000000000000000000000000000000000.00     0  03:35       -1.#J
  232255               JUNCTION    -1.#J  93657781373479488000000000000000000000000000000000000000000000000000000000000000000000000000000000000000000000000000000000000000000000000000000000000000000000000000000000000000000000000000000000000000000000000000000000000000000000000000000000000000000000000000000000000000000000000000000000000000000000.00  93657781373479488000000000000000000000000000000000000000000000000000000000000000000000000000000000000000000000000000000000000000000000000000000000000000000000000000000000000000000000000000000000000000000000000000000000000000000000000000000000000000000000000000000000000000000000000000000000000000000000.00     0  04:30       -1.#J
  232264               JUNCTION    -1.#J  264240503860435900000000000000000000000000000000000000000000000000000000000000000000000000000000000000000000000000000000000000000000000000000000000000000000000000000000000000000000000000000000000000000000000000000000000000000000000000000000000000000000000000000000000000000000000000000000000000000.00  264240503860435900000000000000000000000000000000000000000000000000000000000000000000000000000000000000000000000000000000000000000000000000000000000000000000000000000000000000000000000000000000000000000000000000000000000000000000000000000000000000000000000000000000000000000000000000000000000000000.00     0  04:55       -1.#J
  232299               JUNCTION    -1.#J  1907617276254313200000000000000000000000000000000000000000000000000000000000000000000000000000000000000000000000000000000000000000000000000000000000000000000000000000000000000000000000000000000000000000000000000000000000000000000000000000000000000000000000000000000000000000000000000000000000000.00  1907617276254313200000000000000000000000000000000000000000000000000000000000000000000000000000000000000000000000000000000000000000000000000000000000000000000000000000000000000000000000000000000000000000000000000000000000000000000000000000000000000000000000000000000000000000000000000000000000000.00     0  03:40       -1.#J
  232301               JUNCTION    -1.#J     1.#J     1.#J     0  03:45       -1.#J
  232303               JUNCTION    -1.#J  4833640273668888900000000000000000000000000000000000000000000000000000000000000000000000000000000000000000000000000000000000000000000000000000000000000000000000000000000000000000000000000000000000000000000000000000000000000000000000000000000000000000000000000000000000.00  4833640273668888900000000000000000000000000000000000000000000000000000000000000000000000000000000000000000000000000000000000000000000000000000000000000000000000000000000000000000000000000000000000000000000000000000000000000000000000000000000000000000000000000000000000.00     0  03:20       -1.#J
  234554               JUNCTION    -1.#J     1.#J     1.#J     0  03:50       -1.#J
  234557               JUNCTION    -1.#J  909993540523042940000000000000000000000000000000000000000000000000000000000000000000000000000000000000000000000000000000000000000000000000000000000000000000000000000000000000000000000000000000000000000000000000000000000000000000000000000000000000000000000000000000000000000000000000000000000000000000000.00  909993540523042940000000000000000000000000000000000000000000000000000000000000000000000000000000000000000000000000000000000000000000000000000000000000000000000000000000000000000000000000000000000000000000000000000000000000000000000000000000000000000000000000000000000000000000000000000000000000000000000.00     0  03:25       -1.#J
  234558               JUNCTION    -1.#J     1.#J     1.#J     0  03:25       -1.#J
  234559               JUNCTION    -1.#J  159314195321743040000000000000000000000000000000000000000000000000000000000000000000000000000000000000000000000000000000000000000000000000000000000000000000000000000000000000000000000000000000000000000000000000000000000000000000000000000000000000000000000000000000000000000000000000000000000000000.00  159314195321743040000000000000000000000000000000000000000000000000000000000000000000000000000000000000000000000000000000000000000000000000000000000000000000000000000000000000000000000000000000000000000000000000000000000000000000000000000000000000000000000000000000000000000000000000000000000000000.00     0  03:20       -1.#J
  234560               JUNCTION    -1.#J  2947535972850089500000000000000000000000000000000.00  2947535972850089500000000000000000000000000000000.00     0  01:10       -1.#J
  234561               JUNCTION    -1.#J  1835347336680656100000000000000000000000.00  1835347336680656100000000000000000000000.00     0  01:00       -1.#J
  234562               JUNCTION    -1.#J  28175448463437846000000000000000000000000000000000000000000000000000000000000000000000000000000000000000000000000000000000000000000000000000000000000000000000000000000000000000000000000000000000000000000000000000000000000000000000000000000000000000000000000000000000000000000000000000000000000000000000.00  28175448463437846000000000000000000000000000000000000000000000000000000000000000000000000000000000000000000000000000000000000000000000000000000000000000000000000000000000000000000000000000000000000000000000000000000000000000000000000000000000000000000000000000000000000000000000000000000000000000000000.00     0  03:25       -1.#J
  234876               JUNCTION    -1.#J  7119585297034491100000000000000000000000000000000000000000000000000000000000000000000000000000000000000000000000000000000000000000000000000000000000000000000000000000000000000000000000000000000000000000000000000000000000000000000000000000000000000000000000000000000000000000000000000000000000000000000000.00  7119585297034491100000000000000000000000000000000000000000000000000000000000000000000000000000000000000000000000000000000000000000000000000000000000000000000000000000000000000000000000000000000000000000000000000000000000000000000000000000000000000000000000000000000000000000000000000000000000000000000000.00     0  03:55       -1.#J
  24077                JUNCTION    -1.#J  1794729890123810200000000000000000000000000000000000000000000000000000000000000.00  1794729890123810200000000000000000000000000000000000000000000000000000000000000.00     0  01:25       -1.#J
  24078                JUNCTION    -1.#J     1.#J     1.#J     0  03:25       -1.#J
  24079                JUNCTION    -1.#J     1.#J     1.#J     0  03:25       -1.#J
  24088                JUNCTION    -1.#J     1.#J     1.#J     0  03:45       -1.#J
  24089                JUNCTION    -1.#J  273483332360510300000000000000000000000000000000000000000000000000000000000000000000000000000000000000000000000000000000000000000000000000000000000000000000000000000000000000000000000000000000000000000000000000000000000000000000000000000000000000000000000000000000000000000000000000.00  273483332360510300000000000000000000000000000000000000000000000000000000000000000000000000000000000000000000000000000000000000000000000000000000000000000000000000000000000000000000000000000000000000000000000000000000000000000000000000000000000000000000000000000000000000000000000000.00     0  03:30       -1.#J
  24566                JUNCTION     0.08     4.40    21.50     0  01:10        4.40
  2790                 JUNCTION  126046048982272430000000000000000000000000000000000000000000000000000000000000000000000000000000000000000000000000000000000000000000000000000000000000000000000000000000000000000000000000000000000000000000000000000000000000000000000000000000000000000000000000000000000000000000000000000000000000000000000.00  64019583621082441000000000000000000000000000000000000000000000000000000000000000000000000000000000000000000000000000000000000000000000000000000000000000000000000000000000000000000000000000000000000000000000000000000000000000000000000000000000000000000000000000000000000000000000000000000000000000000000000.00  64019583621082441000000000000000000000000000000000000000000000000000000000000000000000000000000000000000000000000000000000000000000000000000000000000000000000000000000000000000000000000000000000000000000000000000000000000000000000000000000000000000000000000000000000000000000000000000000000000000000000000.00     0  05:00        1.#J
  2791                 JUNCTION    -1.#J  322697390145762030000.00  322697390145762030000.00     0  01:20       -1.#J
  2792                 JUNCTION    -1.#J  3437906578691220400000000000000000000000000000000000000000000000000000000000000000000000000000000000000000000000000000000000000000000000000000000000000000000000000000000000000000000000000000000000000000000000000000000000000000000000000000000000000000000000000000000000000000000000000000000000000000000.00  3437906578691220400000000000000000000000000000000000000000000000000000000000000000000000000000000000000000000000000000000000000000000000000000000000000000000000000000000000000000000000000000000000000000000000000000000000000000000000000000000000000000000000000000000000000000000000000000000000000000000.00     0  04:55       -1.#J
  3822                 JUNCTION    -1.#J  7911569308736044200000000000000000000000000000000000000000000000000000000000000000000000000000000000000000000000000000000000000000000000000000000000000000000000000000000000000000000000000000000000000000000000000000000000000000000000000000000000000000000000000000000000000000000000000000000000000000000.00  7911569308736044200000000000000000000000000000000000000000000000000000000000000000000000000000000000000000000000000000000000000000000000000000000000000000000000000000000000000000000000000000000000000000000000000000000000000000000000000000000000000000000000000000000000000000000000000000000000000000000.00     0  03:25       -1.#J
  3826                 JUNCTION    -1.#J  1391606804601997400000000000000000000000000000000000000000000000000000000000000000000000000000000000000000000000000000000000000000000000000000000000000000000000000000000000000000000000000000000000000000000000000000000000000000000000000000000000000000000000000000000000000000000000000000000000000.00  1391606804601997400000000000000000000000000000000000000000000000000000000000000000000000000000000000000000000000000000000000000000000000000000000000000000000000000000000000000000000000000000000000000000000000000000000000000000000000000000000000000000000000000000000000000000000000000000000000000.00     0  04:55       -1.#J
  4169                 JUNCTION    -1.#J  4583609389327276900000000000000000000000000000000000000000000000000000000000000000000000000000000000000000000000000000000000000000000000000000000000000000000000000000000000000000000000000000000000000000000000000000000000000000000000000000000000000000000000000000000000000000000000000000000000000000000000.00  4583609389327276900000000000000000000000000000000000000000000000000000000000000000000000000000000000000000000000000000000000000000000000000000000000000000000000000000000000000000000000000000000000000000000000000000000000000000000000000000000000000000000000000000000000000000000000000000000000000000000000.00     0  03:35       -1.#J
  4170                 JUNCTION    -1.#J  1555206306992350500000000000000000000000000000000000000000000000000000000000000000000000000000000000000000000000000000000000000000000000000000000000000000000000000000000000000000000000000000000000000000000000000000000000000000000000000000000000000000000000000000000000000000000000000000000000000000000.00  1555206306992350500000000000000000000000000000000000000000000000000000000000000000000000000000000000000000000000000000000000000000000000000000000000000000000000000000000000000000000000000000000000000000000000000000000000000000000000000000000000000000000000000000000000000000000000000000000000000000000.00     0  03:30       -1.#J
  4171                 JUNCTION  99640366908389928000000000000000000000000000000000000000000000000000000000000000000000000000000000000000000000000000000000000000000000000000000000000000000000000000000000000000000000000000000000000000000000000000000000000000000000000000000000000000000000000000000000000000000000000000000000000000000000.00  28696220459454701000000000000000000000000000000000000000000000000000000000000000000000000000000000000000000000000000000000000000000000000000000000000000000000000000000000000000000000000000000000000000000000000000000000000000000000000000000000000000000000000000000000000000000000000000000000000000000000000.00  28696220459454701000000000000000000000000000000000000000000000000000000000000000000000000000000000000000000000000000000000000000000000000000000000000000000000000000000000000000000000000000000000000000000000000000000000000000000000000000000000000000000000000000000000000000000000000000000000000000000000000.00     0  03:35        1.#J
  4172                 JUNCTION    -1.#J  241484751090867620000000000000000000000000000000000000000000000000000000000000000000000000000000000000000000000000000000000000000000000000000000000000000000000000000000000000000000000000000000000000000000000000000000000000000000000000000000000000000000000000000000000000000000000000000000000000000000000.00  241484751090867620000000000000000000000000000000000000000000000000000000000000000000000000000000000000000000000000000000000000000000000000000000000000000000000000000000000000000000000000000000000000000000000000000000000000000000000000000000000000000000000000000000000000000000000000000000000000000000000.00     0  03:35       -1.#J
  4182                 JUNCTION    -1.#J     1.#J     1.#J     0  04:00       -1.#J
  4587                 JUNCTION    -1.#J     1.#J     1.#J     0  03:45       -1.#J
  4589                 JUNCTION    -1.#J  33082384888261115000000000000000000000000000000000000000000000000000000000000000000000000000000000000000000000000000000000000000000000000000000000000000000000000000000000000000000000000000000000000000000000000000000000000000000000000000000000000000000000000000000000000000000000000000.00  33082384888261115000000000000000000000000000000000000000000000000000000000000000000000000000000000000000000000000000000000000000000000000000000000000000000000000000000000000000000000000000000000000000000000000000000000000000000000000000000000000000000000000000000000000000000000000000.00     0  03:30       -1.#J
  4723                 JUNCTION    -1.#J  401708956002276960000000000000000000000000000000000000000000000000000000000000000000000000000000000000000000000000000000000000000000000000000000000000000000000000000000000000000000000000000000000000000000000000000000000000000000000000000000000000000000000000000000000000000000000000000000000000000000.00  401708956002276960000000000000000000000000000000000000000000000000000000000000000000000000000000000000000000000000000000000000000000000000000000000000000000000000000000000000000000000000000000000000000000000000000000000000000000000000000000000000000000000000000000000000000000000000000000000000000000.00     0  03:30       -1.#J
  4724                 JUNCTION    -1.#J  413321816626292480000000000000000000000000000000000000000000000000000000000000000000000000000000000000000000000000000000000000000000000000000000000000000000000000000000000000000000000000000000000000000000000000000000000000000000000000000000000000000000000000000000000000000000000000000000000000000000000.00  413321816626292480000000000000000000000000000000000000000000000000000000000000000000000000000000000000000000000000000000000000000000000000000000000000000000000000000000000000000000000000000000000000000000000000000000000000000000000000000000000000000000000000000000000000000000000000000000000000000000000.00     0  03:35       -1.#J
  4725                 JUNCTION    -1.#J  2352265559557119900000000000000000000000000000000000000000000000000000000000000000000000000000000000000000000000000000000000000000000000000000000000000000000000000000000000000000000000000000000000000000000000000000000000000000000000000000000000000000000000000000000000000000000000000000000000000000000000.00  2352265559557119900000000000000000000000000000000000000000000000000000000000000000000000000000000000000000000000000000000000000000000000000000000000000000000000000000000000000000000000000000000000000000000000000000000000000000000000000000000000000000000000000000000000000000000000000000000000000000000000.00     0  03:35       -1.#J
  4726                 JUNCTION    -1.#J  607444493454767590000000000000000000000000000000000000000000000000000000000000000000000000000000000000000000000000000000000000000000000000000000000000000000000000000000000000000000000000000000.00  607444493454767590000000000000000000000000000000000000000000000000000000000000000000000000000000000000000000000000000000000000000000000000000000000000000000000000000000000000000000000000000000.00     0  02:40       -1.#J
  4744                 JUNCTION    -1.#J  60461577098924671000000000000000000000000000000000000000000000000000000000000000000000000000000000000000000000000000000000000000000000000000000000000000000000000000000000000000000000000000000000000000000000000000000000000000000000000000000000000000000000000000000000000000000000000000000000000000000000.00  60461577098924671000000000000000000000000000000000000000000000000000000000000000000000000000000000000000000000000000000000000000000000000000000000000000000000000000000000000000000000000000000000000000000000000000000000000000000000000000000000000000000000000000000000000000000000000000000000000000000000.00     0  04:30       -1.#J
  4745                 JUNCTION    -1.#J     1.#J     1.#J     0  04:35       -1.#J
  4746                 JUNCTION    -1.#J  515804424122368590000000000000000000000000000000000000000000000000000000000000000000000000000000000000000000000000000000000000000000000000000000000000000000000000000000000000000000000000000000000000000000000000000000000000000000000000000000000000000000000000000000000000000000000000000000000000000000000.00  515804424122368590000000000000000000000000000000000000000000000000000000000000000000000000000000000000000000000000000000000000000000000000000000000000000000000000000000000000000000000000000000000000000000000000000000000000000000000000000000000000000000000000000000000000000000000000000000000000000000000.00     0  04:10       -1.#J
  4747                 JUNCTION  9486909331259362000000000000000000000000000000000000000000000000000000000000000000000000000000000000000000000000000000000000000000000000000000000000000000000000000000000000000000000000000000000000000000000000000000000000000000000000000000000000000000000000000000000000000000000000000000000000000000000.00  5399160944141428500000000000000000000000000000000000000000000000000000000000000000000000000000000000000000000000000000000000000000000000000000000000000000000000000000000000000000000000000000000000000000000000000000000000000000000000000000000000000000000000000000000000000000000000000000000000000000000000.00  5399160944141428500000000000000000000000000000000000000000000000000000000000000000000000000000000000000000000000000000000000000000000000000000000000000000000000000000000000000000000000000000000000000000000000000000000000000000000000000000000000000000000000000000000000000000000000000000000000000000000000.00     0  04:35        1.#J
  JCT-10               JUNCTION    -1.#J  20989068064722580000000000000000000000000000000000000000000000000000000000000000000000000000000000000000000000000000000000000000000000000000000000000000000000000000000000000000000000000000000000000000000000000000000000000000000000000000000000000000000000000000000000000000000000000000000000000000000.00  20989068064722580000000000000000000000000000000000000000000000000000000000000000000000000000000000000000000000000000000000000000000000000000000000000000000000000000000000000000000000000000000000000000000000000000000000000000000000000000000000000000000000000000000000000000000000000000000000000000000.00     0  04:00       -1.#J
  JCT-20               JUNCTION    -1.#J  114225297882246820000000000000000000000000000000000000000000000000000000000000000000000000000000000000000000000000000000000000000000000000000000000000000000000000000000000000000000000000000000000000000000000000000000000000000000000000000000000000000000000000000000000000000000000000000000000000000000000.00  114225297882246820000000000000000000000000000000000000000000000000000000000000000000000000000000000000000000000000000000000000000000000000000000000000000000000000000000000000000000000000000000000000000000000000000000000000000000000000000000000000000000000000000000000000000000000000000000000000000000000.00     0  04:20       -1.#J
  JCT-24               JUNCTION    -1.#J  54917240146652425000000000000000000000000000000000000000000000000000000000000000000000000000000000000000000000000000000000000000000000000000000000000000000000000000000000000000000000000000000000000000000000000000000000000000000000000000000000000000000000000000000000000000000000000000000000000000000.00  54917240146652425000000000000000000000000000000000000000000000000000000000000000000000000000000000000000000000000000000000000000000000000000000000000000000000000000000000000000000000000000000000000000000000000000000000000000000000000000000000000000000000000000000000000000000000000000000000000000000.00     0  04:55       -1.#J
  JCT-26               JUNCTION    -1.#J  59953222071463560000000000000000000000000000000000000000000000000000000000000000000000000000000000000000000000000000000000000000000000000000000000000000000000000000000000000000000000000000000000000000000000000000000000000000000000000000000000000000000000000000000000000000000000000000000000000000000000.00  59953222071463560000000000000000000000000000000000000000000000000000000000000000000000000000000000000000000000000000000000000000000000000000000000000000000000000000000000000000000000000000000000000000000000000000000000000000000000000000000000000000000000000000000000000000000000000000000000000000000000.00     0  04:55       -1.#J
  JCT-28               JUNCTION    -1.#J  81850299649486927000000000000000000000000000000000000000000000000000000000000000000000000000000000000000000000000000000000000000000000000000000000000000000000000000000000000000000000000000000000000000000000000000000000000000000000000000000000000000000000000000000000000000000000000000000000000000000000000.00  81850299649486927000000000000000000000000000000000000000000000000000000000000000000000000000000000000000000000000000000000000000000000000000000000000000000000000000000000000000000000000000000000000000000000000000000000000000000000000000000000000000000000000000000000000000000000000000000000000000000000000.00     0  04:55       -1.#J
  JCT-48               JUNCTION     0.15     0.35    10.35     0  08:50        0.35
  P-STMH-000002        JUNCTION    28.81   117.75   152.74     0  03:45      117.75
  P-STMH-000003        JUNCTION    31.47   140.94   175.39     0  02:25      140.94
  P-STMH-000004        JUNCTION    35.45   487.20   521.30     0  01:25      487.20
  P-STMH-000008        JUNCTION    41.03   186.40   228.07     0  02:20      186.40
  P-STMH-000009        JUNCTION     8.60   119.27   152.60     1  18:20      119.27
  P-STMH-000013        JUNCTION     2.16     9.92    31.40     0  12:50        9.92
  P-STMH-000014        JUNCTION     2.30     6.76    23.96     0  13:40        6.76
  P-STMH-000015        JUNCTION     2.26     4.67    21.12     0  12:35        4.67
  P-STMH-000016        JUNCTION     2.08     7.84    23.80     1  04:50        7.84
  P-STMH-000017        JUNCTION     0.51     3.18    97.26     0  14:45        3.18
  P-STMH-000018        JUNCTION     2.82    11.18    95.39     0  14:40       11.18
  P-STMH-000019        JUNCTION     1.11     5.21    86.46     0  13:20        5.21
  P-STMH-000020        JUNCTION     0.01     1.25    80.21     0  00:45        1.25
  P-STMH-000021        JUNCTION     1.30     7.84    82.67     0  01:35        7.84
  P-STMH-000022        JUNCTION     1.06    22.14    95.38     1  02:00       22.14
  P-STMH-000025        JUNCTION     9.60   115.11   191.21     0  01:00      115.11
  P-STMH-000028        JUNCTION     8.77    88.81   168.55     0  01:00       88.81
  P-STMH-000030        JUNCTION     6.65    36.05   110.54     0  03:10       36.05
  P-STMH-000031        JUNCTION     4.54    17.38    87.68     0  04:40       17.38
  P-STMH-000032        JUNCTION     2.77     5.83    72.58     0  01:05        5.83
  P-STMH-000033        JUNCTION  11184401689.87  442553705171.79  442553705238.86     0  03:25  442553696256.00
  P-STMH-000034        JUNCTION  10804400176.13  201104126830.98  201104126898.23     0  03:50  201104130048.00
  P-STMH-000035        JUNCTION  14891595984.60  146206497732.13  146206497803.38     0  03:40  146206490624.00
  P-STMH-000036        JUNCTION  14163018134.22  34971305211.58  34971305285.73     0  07:15  34971303936.00
  P-STMH-000037        JUNCTION  13885828971.62  28973346350.41  28973346428.62     0  11:15  28973346816.00
  P-STMH-000041        JUNCTION   685.70  8226.72  8282.55     0  01:30     8226.72
  P-STMH-000042        JUNCTION     6.35   146.87   200.98     1  14:05      146.87
  P-STMH-000043        JUNCTION   400.56  2372.99  2428.48     0  03:10     2372.99
  P-STMH-000044        JUNCTION     3.11    14.07    87.66     0  05:10       14.07
  P-STMH-000045        JUNCTION    -1.#J  245764589724400310000000000000000000000000000000000000000000000000000000000000000000000000000000000000000000000000000000000000000000000000000000000000000000000000000000000000000000000000000000000000000000000000000000000000000000000000000000000000000000000000000000000000000000000000000000000000000000.00  245764589724400310000000000000000000000000000000000000000000000000000000000000000000000000000000000000000000000000000000000000000000000000000000000000000000000000000000000000000000000000000000000000000000000000000000000000000000000000000000000000000000000000000000000000000000000000000000000000000000.00     0  03:35       -1.#J
  P-STMH-000046        JUNCTION    -1.#J  22539049925793884000000000000000000000000000000000000000000000000000000000000000000000000000000000000000000000000000000000000000000000000000000000000000000000000000000000000000000000000000000000000000000000000000000000000000000000000000000000000000000000000000000000000000000000000000000000000000.00  22539049925793884000000000000000000000000000000000000000000000000000000000000000000000000000000000000000000000000000000000000000000000000000000000000000000000000000000000000000000000000000000000000000000000000000000000000000000000000000000000000000000000000000000000000000000000000000000000000000.00     0  03:35       -1.#J
  P-STMH-000047        JUNCTION    -1.#J  326203203301281850000000000000000000000000000000000000000000000000000000000000000000000000000000000000000000000000000000000000000000000000000000000000000000000000000000000000000000000000000000000000000000000000000000000000000000000000000000000000000000000000000000000000000000000000000000000000000000000.00  326203203301281850000000000000000000000000000000000000000000000000000000000000000000000000000000000000000000000000000000000000000000000000000000000000000000000000000000000000000000000000000000000000000000000000000000000000000000000000000000000000000000000000000000000000000000000000000000000000000000000.00     0  03:35       -1.#J
  P-STMH-000048        JUNCTION    -1.#J  16883759450030691000000000000000000000000000000000000000000000000000000000000000000000000000000000000000000000000000000000000000000000000000000.00  16883759450030691000000000000000000000000000000000000000000000000000000000000000000000000000000000000000000000000000000000000000000000000000000.00     0  02:05       -1.#J
  P-STMH-000050        JUNCTION     3.47    32.86    88.11     0  01:35       32.86
  P-STMH-000051        JUNCTION     2.95    19.27    78.94     0  01:20       19.27
  P-STMH-000052        JUNCTION     1.61     7.10    61.23     0  01:10        7.10
  P-STMH-000053        JUNCTION     2.02    62.13   113.72     0  00:45       62.13
  P-STMH-000057        JUNCTION    -1.#J     1.#J     1.#J     0  05:00       -1.#J
  P-STMH-000060        JUNCTION     1.90    26.73    80.00     0  01:15       26.73
  P-STMH-000064        JUNCTION     2.17    10.04    68.29     0  12:45       10.04
  P-STMH-000066        JUNCTION   253.61  3300.14  3355.41     0  01:25     3300.14
  P-STMH-000068        JUNCTION     5.19     6.09    55.04     0  02:55        6.09
  P-STMH-000069        JUNCTION     0.76     1.25    45.50     0  01:35        1.25
  P-STMH-000070        JUNCTION     0.56     5.15    70.78     0  01:50        5.15
  OFALL-10             OUTFALL      0.08     0.21     9.21     0  08:50        0.21
  OUT-DP-2             OUTFALL      0.15     0.30    13.35     0  02:10        0.30
  OUT-L10-1            OUTFALL      0.24     0.38    44.76     0  01:10        0.38
  OUT-L3-1             OUTFALL      0.11     0.25    14.16     0  00:40        0.25
  OUT-L3-C             OUTFALL      0.01     0.60    17.60     0  01:10        0.60
  OUT-L3A              OUTFALL      0.43     0.45    30.03     0  00:40        0.45
  OUT-L4               OUTFALL      0.04     0.90    15.06     0  00:45        0.90
  OUT-L4-1             OUTFALL      0.19     0.38    28.68     0  00:45        0.38
  OUT-L4-1A            OUTFALL      0.10     0.30    40.57     0  01:00        0.30
  OUT-L6               OUTFALL      0.24     0.38    71.58     0  00:40        0.38
  OUT-L6-A             OUTFALL      0.22     0.45    63.45     0  03:00        0.45
  OUT-LB-8             OUTFALL      0.41     0.45    41.51     0  00:40        0.45
  OUT-LC1-A            OUTFALL      0.03     0.38    25.53     0  00:45        0.38
  POND-DP-2            STORAGE      0.00     0.00    13.71     0  00:00        0.00
  POND-L10-1           STORAGE      1.19     2.00    54.02     0  01:00        2.00
  POND-L3-1            STORAGE      1.75     2.00    17.87     0  01:05        2.00
  POND-L3-C            STORAGE      1.90     2.00    19.20     0  02:50        2.00
  POND-L3A             STORAGE      1.75     2.00    32.50     0  00:50        2.00
  POND-L4              STORAGE      1.98     2.00    20.70     0  00:40        2.00
  POND-L4-1            STORAGE      0.19     2.00    34.16     0  01:00        2.00
  POND-L4-1A           STORAGE      1.09     2.00    55.03     0  01:20        2.00
  POND-L6              STORAGE      1.89     2.00    75.45     0  00:50        2.00
  POND-L6-A            STORAGE      0.00     0.00    66.25     0  00:00        0.00
  POND-L8              STORAGE      1.60     2.00    53.90     0  00:40        2.00
  POND-L8-A            STORAGE      1.98     2.00    68.15     0  00:40        2.00
  POND-LC1-A           STORAGE      1.98     2.00    37.98     0  00:40        2.00
  
  
  *******************
  Node Inflow Summary
  *******************
  
  -------------------------------------------------------------------------------------------------
                                  Maximum  Maximum                  Lateral       Total        Flow
                                  Lateral    Total  Time of Max      Inflow      Inflow     Balance
                                   Inflow   Inflow   Occurrence      Volume      Volume       Error
  Node                 Type           LPS      LPS  days hr:min    10^6 ltr    10^6 ltr     Percent
  -------------------------------------------------------------------------------------------------
  1416                 JUNCTION      0.0014522245542576137000000000000000000000000000000000000000000000000000000000000000000000000000000000000000000000000000000000000000000000000000000000000000000000000000000000000000000000000000000000000000000000000000000000000000000000000000000000000000000000000000000000000000000000000000000000000000000000000.00     0  03:25           0       -1.#J      -1.#IO
  1429                 JUNCTION      0.00     1.#J     0  04:05           0       -1.#J      -1.#IO
  22717                JUNCTION      0.00250273125280018900000000000000000000000000000000000000000000000000000000000000000000000000000000000000000000000000000000000000000000000000000000000000000000000000000000000000000000000000000000000000000000000000000000000000000000000000000000000000000000000000000000000000000000000000000000000000000000000.00     0  03:40           0   7.51e+298181318791322407710000000.000
  22755                JUNCTION      0.00 85638.92     1  02:00           0        60.6     -99.175
  22756                JUNCTION      0.00 38372.28     0  02:10           0         295     -93.434
  232234               JUNCTION      0.001914042864409360600000000000000000000000000000000000000000000000000000000000000000000000000000000000000000000000000000000000000000000000000000000000000000000000000000000000000000000000000000000000000000000000000000000000000000000000000000000000000000000000000000000000000000000000000000000000000000000.00     0  03:30           0   5.74e+296    -100.000
  232239               JUNCTION      0.00221923700357794480000000000000000000000000000000000000000000000000000000000000000000000000000000000000000000000000000000000000000000000.00     0  02:00           0       -1.#J      -1.#IO
  232243               JUNCTION      0.0024568956985339347000000000000000000000000000000000000000000000000000000000000000000000000000000000000000000000000000000000000000000000000000000000000000000000000000000000000000.00     0  02:25           0   9.29e+171      -1.#IO
  232250               JUNCTION      0.001764960214161080200000000000000000000000000000000000000000000000000000000000000000000000000000000000000000000000000000000000000000000000000000000000000000000000000000000000000000000000000000000000000000000000000000000000000000000000000000000000000000000000000000000000000000000000000000000000000000000000000.00     0  03:35           0       -1.#J      -1.#IO
  232255               JUNCTION      0.0046214569508085682000000000000000000000000000000000000000000000000000000000000000000000000000000000000000000000000000000000000000000000000000000000000000000000000000000000000000000000000000000000000000000000000000000000000000000000000000000000000000000000000000000000000000000000000000000000000000000000000.00     0  04:25           0       -1.#J      -1.#IO
  232264               JUNCTION      0.00282881846516566120000000000000000000000000000000000000000000000000000000000000000000000000000000000000000000000000000000000000000000000000000000000000000000000000000000000000000000000000000000000000000000000000000000000000000000000000000000000000000000000000000000000000000000000000000000000000000000.00     0  04:55           0       -1.#J      -1.#IO
  232299               JUNCTION      0.00287866522409269490000000000000000000000000000000000000000000000000000000000000000000000000000000000000000000000000000000000000000000000000000000000000000000000000000000000000000000000000000000000000000000000000000000000000000000000000000000000000000000000000000000000000000000000000000000000000000.00     0  03:35           0       -1.#J      -1.#IO
  232301               JUNCTION      0.0088453890170674597000000000000000000000000000000000000000000000000000000000000000000000000000000000000000000000000000000000000000000000000000000000000000000000000000000000000000000000000000000000000000000000000000000000000000000000000000000000000000000000000000000000000000000000000000000000000000000000.00     0  03:40           0       -1.#J      -1.#IO
  232303               JUNCTION      0.00117855303395441700000000000000000000000000000000000000000000000000000000000000000000000000000000000000000000000000000000000000000000000000000000000000000000000000000000000000000000000000000000000000000000000000000000000000000000000000000000000000000000000000000000000000000000000000.00     0  03:25           0   3.54e+277      -1.#IO
  234554               JUNCTION      0.00103471998873105710000000000000000000000000000000000000000000000000000000000000000000000000000000000000000000000000000000000000000000000000000000000000000000000000000000000000000000000000000000000000000000000000000000000000000000000000000000000000000000000000000000000000000000000000000000000000000000000000000.00     0  03:50           0        1.#J      -1.#IO
  234557               JUNCTION      0.00474520380152000140000000000000000000000000000000000000000000000000000000000000000000000000000000000000000000000000000000000000000000000000000000000000000000000000000000000000000000000000000000000000000000000000000000000000000000000000000000000000000000000000000000000000000000000000000000000000000000000000.00     0  03:25           0       -1.#J      -1.#IO
  234558               JUNCTION      0.00     1.#J     0  03:25           0        1.#J      -1.#IO
  234559               JUNCTION      0.0097749064553579371000000000000000000000000000000000000000000000000000000000000000000000000000000000000000000000000000000000000000000000000000000000000000000000000000000000000000000000000000000000000000000000000000000000000000000000000000000000000000000000000000000000000000000000000000000000000000000.00     0  03:20           0       -1.#J      -1.#IO
  234560               JUNCTION      0.001858924611182156200000000000000000000000000000000000000000000000000000000000000000000000000000000000000000000000000000000000000000000000000000000000000000000000000000000000000000000000000000000000000000000000000000000000000000000000000000000000000000000000000000000000000000000000000000000000000000000000.00     0  03:25           0   5.58e+299      -1.#IO
  234561               JUNCTION      0.00     0.03     0  01:15           0    0.000221      -1.#IO
  234562               JUNCTION      0.0011160710540793100000000000000000000000000000000000000000000000000000000000000000000000000000000000000000000000000000000000000000000000000000000000000000000000000000000000000000000000000000000000000000000000000000000000000000000000000000000000000000000000000000000000000000000000000000000000000000000000000.00     0  03:25           0       -1.#J      -1.#IO
  234876               JUNCTION      0.005323419959677210100000000000000000000000000000000000000000000000000000000000000000000000000000000000000000000000000000000000000000000000000000000000000000000000000000000000000000000000000000000000000000000000000000000000000000000000000000000000000000000000000000000000000000000000000000000000000000000000000.00     0  03:50           0    1.6e+303      -1.#IO
  24077                JUNCTION    125.9435366379532048677000000000000000000000000000000000000000000000000000000000000000000000000000000000000000000000000000000000000000000000000000000000000000000000000000000000000000000000000000000000000000000000000000000000000000000000000000000000000000000000000000000000000000000000000000000000000000000000000.00     0  03:50        4.89       -1.#J      -1.#IO
  24078                JUNCTION      0.00     1.#J     0  03:25           0        1.#J      -1.#IO
  24079                JUNCTION      0.00     1.#J     0  03:25           0       -1.#J      -1.#IO
  24088                JUNCTION      0.00     1.#J     0  03:45           0       -1.#J      -1.#IO
  24089                JUNCTION      0.0020175043109467385000000000000000000000000000000000000000000000000000000000000000000000000000000000000000000000000000000000000000000000000000000000000000000000000000000000000000000000000000000000000000000000000000000000000000000000000000000000000000000000000000000000000000000000000.00     0  03:25           0   6.05e+276      -1.#IO
  24566                JUNCTION      0.00     0.31     0  00:55           0    0.000198    -100.000
  2790                 JUNCTION      0.0012854798257176691000000000000000000000000000000000000000000000000000000000000000000000000000000000000000000000000000000000000000000000000000000000000000000000000000000000000000000000000000000000000000000000000000000000000000000000000000000000000000000000000000000000000000000000000000000000000000000000000000.00     0  04:55           0   3.86e+303      -1.#IO
  2791                 JUNCTION      0.0075563162617646673000000000000000.00     0  01:55           0       -1.#J      -1.#IO
  2792                 JUNCTION      0.003914514311575673400000000000000000000000000000000000000000000000000000000000000000000000000000000000000000000000000000000000000000000000000000000000000000000000000000000000000000000000000000000000000000000000000000000000000000000000000000000000000000000000000000000000000000000000000000000000000000000000.00     0  04:55           0       -1.#J      -1.#IO
  3822                 JUNCTION      0.00     1.#J     0  03:40           0        1.#J      -1.#IO
  3826                 JUNCTION    330.511903813926174907400000000000000000000000000000000000000000000000000000000000000000000000000000000000000000000000000000000000000000000000000000000000000000000000000000000000000000000000000000000000000000000000000000000000000000000000000000000000000000000000000000000000000000000000000000000000000000.00     0  04:55          17       -1.#J      -1.#IO
  4169                 JUNCTION      0.007026767654154376000000000000000000000000000000000000000000000000000000000000000000000000000000000000000000000000000000000000000000000000000000000000000000000000000000000000000000000000000000000000000000000000000000000000000000000000000000000000000000000000000000000000000000000000000000000000000000000000000.00     0  03:35           0       -1.#J      -1.#IO
  4170                 JUNCTION      0.001339714851814642300000000000000000000000000000000000000000000000000000000000000000000000000000000000000000000000000000000000000000000000000000000000000000000000000000000000000000000000000000000000000000000000000000000000000000000000000000000000000000000000000000000000000000000000000000000000000000000000.00     0  03:30           0   4.07e+299      -1.#IO
  4171                 JUNCTION      0.00508213137952814720000000000000000000000000000000000000000000000000000000000000000000000000000000000000000000000000000000000000000000000000000000000000000000000000000000000000000000000000000000000000000000000000000000000000000000000000000000000000000000000000000000000000000000000000000000000000000000000.00     0  03:30           0   1.53e+299       0.000
  4172                 JUNCTION      0.00373323577103638510000000000000000000000000000000000000000000000000000000000000000000000000000000000000000000000000000000000000000000000000000000000000000000000000000000000000000000000000000000000000000000000000000000000000000000000000000000000000000000000000000000000000000000000000000000000000000000000000.00     0  03:35           0       -1.#J      -1.#IO
  4182                 JUNCTION    163.381267458980832121700000000000000000000000000000000000000000000000000000000000000000000000000000000000000000000000000000000000000000000000000000000000000000000000000000000000000000000000000000000000000000000000000000000000000000000000000000000000000000000000000000000000000000000000000000000000000000000000000.00     0  03:55        10.2       -1.#J      -1.#IO
  4587                 JUNCTION      0.00     1.#J     0  03:45           0        1.#J      -1.#IO
  4589                 JUNCTION      0.001587901245357388200000000000000000000000000000000000000000000000000000000000000000000000000000000000000000000000000000000000000000000000000000000000000000000000000000000000000000000000000000000000000000000000000000000000000000000000000000000000000000000000000000000000000000000000000000.00     0  03:30           0   4.76e+281      -1.#IO
  4723                 JUNCTION      0.0011498018565032687000000000000000000000000000000000000000000000000000000000000000000000000000000000000000000000000000000000000000000000000000000000000000000000000000000000000000000000000000000000000000000000000000000000000000000000000000000000000000000000000000000000000000000000000000000000000000000000000.00     0  03:35           0   3.66e+300      -1.#IO
  4724                 JUNCTION      0.00629705721216125750000000000000000000000000000000000000000000000000000000000000000000000000000000000000000000000000000000000000000000000000000000000000000000000000000000000000000000000000000000000000000000000000000000000000000000000000000000000000000000000000000000000000000000000000000000000000000000000000.00     0  03:35           0       -1.#J      -1.#IO
  4725                 JUNCTION      0.003666207323645627500000000000000000000000000000000000000000000000000000000000000000000000000000000000000000000000000000000000000000000000000000000000000000000000000000000000000000000000000000000000000000000000000000000000000000000000000000000000000000000000000000000000000000000000000000000000000000000000000.00     0  03:35           0       -1.#J      -1.#IO
  4726                 JUNCTION      0.0095651276554661035000000000000000000000000000000000000000000000000000000000000000000000000000000000000000000000000000000000000000000000000000000000000000000000000000000000000000000000000000000000.00     0  02:35           0   3.62e+190      -1.#IO
  4744                 JUNCTION      0.00     1.#J     0  04:40           0        1.#J      -1.#IO
  4745                 JUNCTION      0.0065223186715404935000000000000000000000000000000000000000000000000000000000000000000000000000000000000000000000000000000000000000000000000000000000000000000000000000000000000000000000000000000000000000000000000000000000000000000000000000000000000000000000000000000000000000000000000000000000000000000000000.00     0  04:25           0       -1.#J      -1.#IO
  4746                 JUNCTION      0.0081922506523113262000000000000000000000000000000000000000000000000000000000000000000000000000000000000000000000000000000000000000000000000000000000000000000000000000000000000000000000000000000000000000000000000000000000000000000000000000000000000000000000000000000000000000000000000000000000000000000000000000.00     0  04:40           0        1.#J      -1.#IO
  4747                 JUNCTION      0.007936972379003365400000000000000000000000000000000000000000000000000000000000000000000000000000000000000000000000000000000000000000000000000000000000000000000000000000000000000000000000000000000000000000000000000000000000000000000000000000000000000000000000000000000000000000000000000000000000000000000000000.00     0  04:35           0   2.41e+303      -1.#IO
  JCT-10               JUNCTION      0.002933215486910392200000000000000000000000000000000000000000000000000000000000000000000000000000000000000000000000000000000000000000000000000000000000000000000000000000000000000000000000000000000000000000000000000000000000000000000000000000000000000000000000000000000000000000000000000000000000000000000000000.00     0  04:25           0   1.81e+303      -1.#IO
  JCT-20               JUNCTION      0.0076281862978374340000000000000000000000000000000000000000000000000000000000000000000000000000000000000000000000000000000000000000000000000000000000000000000000000000000000000000000000000000000000000000000000000000000000000000000000000000000000000000000000000000000000000000000000000000000000000000000000000.00     0  04:30           0       -1.#J      -1.#IO
  JCT-24               JUNCTION      0.0074866533466257470000000000000000000000000000000000000000000000000000000000000000000000000000000000000000000000000000000000000000000000000000000000000000000000000000000000000000000000000000000000000000000000000000000000000000000000000000000000000000000000000000000000000000000000000000000000000000000000.00     0  04:55           0       -1.#J      -1.#IO
  JCT-26               JUNCTION      0.0034877036793119356000000000000000000000000000000000000000000000000000000000000000000000000000000000000000000000000000000000000000000000000000000000000000000000000000000000000000000000000000000000000000000000000000000000000000000000000000000000000000000000000000000000000000000000000000000000000000000000000.00     0  04:55           0       -1.#J      -1.#IO
  JCT-28               JUNCTION      0.0071933826063333269000000000000000000000000000000000000000000000000000000000000000000000000000000000000000000000000000000000000000000000000000000000000000000000000000000000000000000000000000000000000000000000000000000000000000000000000000000000000000000000000000000000000000000000000000000000000000000000000000.00     0  05:05           0        1.#J      -1.#IO
  JCT-48               JUNCTION    146.22   146.22     0  08:35        6.55        6.55       0.089
  P-STMH-000002        JUNCTION    154.49  9165.85     1  13:10        7.94          36     -14.427
  P-STMH-000003        JUNCTION      0.00 54213.37     0  01:15           0         104     -17.502
  P-STMH-000004        JUNCTION    109.03129265.70     0  01:20        5.41         167     -37.416
  P-STMH-000008        JUNCTION    134.02 63975.19     1  18:15        7.04        34.9     -46.216
  P-STMH-000009        JUNCTION    161.83 60281.76     1  18:15        6.18         179     -17.537
  P-STMH-000013        JUNCTION    210.47   210.47     0  09:35        8.98        8.98      -0.018
  P-STMH-000014        JUNCTION      0.00   524.84     1  02:55           0        11.1     -10.617
  P-STMH-000015        JUNCTION    133.50  1620.57     1  04:25        6.23        23.8       1.632
  P-STMH-000016        JUNCTION    146.60  3837.52     1  06:10        6.67        46.2     -17.522
  P-STMH-000017        JUNCTION    107.35   107.35     0  09:35        5.09        5.09      -0.066
  P-STMH-000018        JUNCTION    147.27   252.81     0  09:35        7.13        12.2      -0.599
  P-STMH-000019        JUNCTION    174.36   342.15     0  11:35        9.66          22      -4.201
  P-STMH-000020        JUNCTION      0.00    33.89     0  07:00           0      0.0177     -99.910
  P-STMH-000021        JUNCTION    163.40  3392.14     0  06:50        7.67        50.5     -72.816
  P-STMH-000022        JUNCTION      0.00  5097.93     1  01:55           0        40.4     -89.033
  P-STMH-000025        JUNCTION    172.87 22146.95     0  00:55        8.58        15.3     -30.253
  P-STMH-000028        JUNCTION    121.71 14151.81     0  00:55        5.48        9.72     -61.034
  P-STMH-000030        JUNCTION      0.00  5967.79     0  00:55           0        48.6     -13.475
  P-STMH-000031        JUNCTION      0.00  2011.91     0  00:55           0        49.9      -3.390
  P-STMH-000032        JUNCTION     74.36  2177.49     0  01:05        3.31        53.6      -3.656
  P-STMH-000033        JUNCTION      0.00270981800776108.37     0  03:20           0   1.17e+011     -68.671
  P-STMH-000034        JUNCTION      0.0068502493634972.15     0  03:25           0   5.67e+010     -60.654
  P-STMH-000035        JUNCTION    153.1953039975709720.26     0  03:10        7.82   3.19e+010      -0.004
  P-STMH-000036        JUNCTION      0.001033601996041.97     0  03:40           0   9.16e+009      -0.000
  P-STMH-000037        JUNCTION      0.00183065093522.78     0  05:20           0   3.05e+009      -0.000
  P-STMH-000041        JUNCTION    110.933946473.24     0  01:25        4.73   1.23e+003      31.280
  P-STMH-000042        JUNCTION     49.18148652.47     0  01:35        2.14   1.13e+003     -64.012
  P-STMH-000043        JUNCTION      0.00175786.39     0  01:40           0         960     -56.645
  P-STMH-000044        JUNCTION     43.93  1768.80     0  00:55        1.64        2.97     -25.619
  P-STMH-000045        JUNCTION    106.27424502374697878880000000000000000000000000000000000000000000000000000000000000000000000000000000000000000000000000000000000000000000000000000000000000000000000000000000000000000000000000000000000000000000000000000000000000000000000000000000000000000000000000000000000000000000000000000000000000000000000.00     0  03:35        4.62       -1.#J      -1.#IO
  P-STMH-000046        JUNCTION     28.6520566182511175716000000000000000000000000000000000000000000000000000000000000000000000000000000000000000000000000000000000000000000000000000000000000000000000000000000000000000000000000000000000000000000000000000000000000000000000000000000000000000000000000000000000000000000000000000000000000000000.00     0  03:35       0.984       -1.#J      -1.#IO
  P-STMH-000047        JUNCTION      0.00271209543153597130000000000000000000000000000000000000000000000000000000000000000000000000000000000000000000000000000000000000000000000000000000000000000000000000000000000000000000000000000000000000000000000000000000000000000000000000000000000000000000000000000000000000000000000000000000000000000000000000.00     0  03:35           0       -1.#J      -1.#IO
  P-STMH-000048        JUNCTION    149.17253171602559794260000000000000000000000000000000000000000000000000000000000000000000000000000000000000000000000000000000000000000000000000000000000000000000000000000000000000000000000000000000000000000000000000000000000000000000000000000000000000000000000000000000000000000000000000000000000000000000000.00     0  03:30        6.67       -1.#J      -1.#IO
  P-STMH-000050        JUNCTION      0.00 15987.70     0  01:30           0        82.2      -1.752
  P-STMH-000051        JUNCTION    194.96  9229.96     0  01:15          10        82.2      -3.183
  P-STMH-000052        JUNCTION    118.64  6527.61     0  05:30         5.5        89.8     -21.249
  P-STMH-000053        JUNCTION      0.00 26339.09     0  00:40           0        88.9     -63.777
  P-STMH-000057        JUNCTION    107.76     1.#J     0  05:00        4.36        1.#J      -1.#IO
  P-STMH-000060        JUNCTION    190.82  6937.81     0  01:10        8.37        41.1     -74.841
  P-STMH-000064        JUNCTION    244.95   676.24     0  05:20        11.1        11.5     -27.718
  P-STMH-000066        JUNCTION      0.00250699.12     0  01:20           0         998     -14.037
  P-STMH-000068        JUNCTION      0.00  1998.41     0  02:50           0        29.2      -9.909
  P-STMH-000069        JUNCTION      0.00  2324.99     0  01:05           0        28.5     -93.792
  P-STMH-000070        JUNCTION      0.00  5673.01     0  01:10           0        67.6     -13.485
  OFALL-10             OUTFALL       0.00   144.18     0  08:50           0        6.55       0.000
  OUT-DP-2             OUTFALL       0.00  4178.25     0  05:50           0         225       0.000
  OUT-L10-1            OUTFALL       0.00 12440.41     1  06:30           0         469       0.000
  OUT-L3-1             OUTFALL       0.00950461.78     1  02:00           0   4.46e+003       0.000
  OUT-L3-C             OUTFALL       0.002209982.31     0  02:40           0   4.28e+003       0.000
  OUT-L3A              OUTFALL       0.00  5343.99     1  14:50           0         108       0.000
  OUT-L4               OUTFALL       0.00     1.#J     0  03:50           0        1.#J      -1.#IO
  OUT-L4-1             OUTFALL       0.00  8761.44     0  01:20           0         509       0.000
  OUT-L4-1A            OUTFALL       0.00  8196.49     0  06:50           0         459       0.000
  OUT-L6               OUTFALL       0.00 26972.42     1  22:20           0         311       0.000
  OUT-L6-A             OUTFALL       0.00  5548.38     0  07:10           0         312       0.000
  OUT-LB-8             OUTFALL       0.00  8171.44     1  19:35           0         182       0.000
  OUT-LC1-A            OUTFALL       0.00     1.#J     0  04:05           0        1.#J      -1.#IO
  POND-DP-2            STORAGE     209.66   209.66     0  09:35        10.6        10.6     -95.289
  POND-L10-1           STORAGE       0.003892038.86     0  01:20           0   3.13e+003      -5.498
  POND-L3-1            STORAGE       0.005681391.77     1  02:00           0   7.11e+003      -0.216
  POND-L3-C            STORAGE     409.80   409.80     0  11:35        28.1        28.1       0.085
  POND-L3A             STORAGE       0.00 19706.43     1  18:15           0         215      -9.145
  POND-L4              STORAGE     379.87     1.#J     0  03:45        19.3        1.#J      -1.#IO
  POND-L4-1            STORAGE     178.68454296257804582960000000000000000000000000000000000000000000000000000000000000000000000000000000000000000000000000000000000000000000000000000000000000000000000000000000000000000000000000000000000000000000000000000000000000000000000000000000000000000000000000000000000000000000000000000000000000000000000000.00     0  05:05        8.41   2.41e+302      -0.000
  POND-L4-1A           STORAGE       0.00 35474.50     0  05:20           0         164      -6.687
  POND-L6              STORAGE     154.03 11817.12     1  22:45         7.9         251      -1.372
  POND-L6-A            STORAGE     358.53   358.53     0  09:35          21          21     -93.261
  POND-L8              STORAGE       0.00 46124.14     0  00:40           0         106     -24.394
  POND-L8-A            STORAGE       0.00217164821250950.19     0  02:00           0   3.19e+011       0.001
  POND-LC1-A           STORAGE     214.03     1.#J     0  03:40         9.8        1.#J      -1.#IO
  
  
  **********************
  Node Surcharge Summary
  **********************
  
  Surcharging occurs when water rises above the top of the highest conduit.
  ---------------------------------------------------------------------
                                               Max. Height   Min. Depth
                                   Hours       Above Crown    Below Rim
  Node                 Type      Surcharged         Meters       Meters
  ---------------------------------------------------------------------
  1416                 JUNCTION        2.92      15658065899624956000000000000000000000000000000000000000000000000000000000000000000000000000000000000000000000000000000000000000000000000000000000000000000000000000000000000000000000000000000000000000000000000000000000000000000000000000000000000000000000000000000000000000000000000000000000000000000000.000        0.000
  1429                 JUNCTION        3.25      4010434849996811300000000000000000000000000000000000000000000000000000000000000000000000000000000000000000000000000000000000000000000000000000000000000000000000000000000000000000000000000000000000000000000000000000000000000000000000000000000000000000000000000000000000000000000000000000000000000000000.000        0.000
  22717                JUNCTION        3.17      297016742860815440000000000000000000000000000000000000000000000000000000000000000000000000000000000000000000000000000000000000000000000000000000000000000000000000000000000000000000000000000000000000000000000000000000000000000000000000000000000000000000000000000000000000000000000000000000000000.000        0.000
  22755                JUNCTION       37.50         71.326        0.000
  22756                JUNCTION       13.00        919.142        0.000
  232234               JUNCTION        3.00      907350016376936340000000000000000000000000000000000000000000000000000000000000000000000000000000000000000000000000000000000000000000000000000000000.000        0.000
  232239               JUNCTION        2.83      43257380529512274000000000000000000000000000000000000000000000000000000000000000000000000000000000000000000000000000000000000000000000000000000000.000        0.000
  232243               JUNCTION        3.00      124156563283188250000000000000000000000000000000000000000000000000000000000000000000000000000000000000000000000000000000000000000000000000000000000000000000000000000000000000.000        0.000
  232250               JUNCTION        2.92      1099942787616642100000000000000000000000000000000000000000000000000000000000000000000000000000000000000000000000000000000000000000000000000000000000000000000000000000000000000000000000000000000000000000000000000000000000000000000000000000000000000000000000000000000000000000000000000000000000000000000000.000        0.000
  232255               JUNCTION        4.00      93657781373479488000000000000000000000000000000000000000000000000000000000000000000000000000000000000000000000000000000000000000000000000000000000000000000000000000000000000000000000000000000000000000000000000000000000000000000000000000000000000000000000000000000000000000000000000000000000000000000000.000        0.000
  232264               JUNCTION        3.92      264240503860435900000000000000000000000000000000000000000000000000000000000000000000000000000000000000000000000000000000000000000000000000000000000000000000000000000000000000000000000000000000000000000000000000000000000000000000000000000000000000000000000000000000000000000000000000000000000000000.000        0.000
  232299               JUNCTION        2.92      1907617276254313200000000000000000000000000000000000000000000000000000000000000000000000000000000000000000000000000000000000000000000000000000000000000000000000000000000000000000000000000000000000000000000000000000000000000000000000000000000000000000000000000000000000000000000000000000000000000.000        0.000
  232301               JUNCTION        3.00          1.#IO        0.000
  232303               JUNCTION        2.75      4833640273668888900000000000000000000000000000000000000000000000000000000000000000000000000000000000000000000000000000000000000000000000000000000000000000000000000000000000000000000000000000000000000000000000000000000000000000000000000000000000000000000000000000000000.000        0.000
  234554               JUNCTION        3.17          1.#IO        0.000
  234557               JUNCTION        2.75      909993540523042940000000000000000000000000000000000000000000000000000000000000000000000000000000000000000000000000000000000000000000000000000000000000000000000000000000000000000000000000000000000000000000000000000000000000000000000000000000000000000000000000000000000000000000000000000000000000000000000.000        0.000
  234558               JUNCTION        2.83          1.#IO        0.000
  234559               JUNCTION        2.58      159314195321743040000000000000000000000000000000000000000000000000000000000000000000000000000000000000000000000000000000000000000000000000000000000000000000000000000000000000000000000000000000000000000000000000000000000000000000000000000000000000000000000000000000000000000000000000000000000000000.000        0.000
  234560               JUNCTION        2.75      2947535972850089500000000000000000000000000000000.000        0.000
  234561               JUNCTION        2.67      1835347336680656100000000000000000000000.000        0.000
  234562               JUNCTION        2.67      28175448463437846000000000000000000000000000000000000000000000000000000000000000000000000000000000000000000000000000000000000000000000000000000000000000000000000000000000000000000000000000000000000000000000000000000000000000000000000000000000000000000000000000000000000000000000000000000000000000000000.000        0.000
  234876               JUNCTION        3.33      7119585297034491100000000000000000000000000000000000000000000000000000000000000000000000000000000000000000000000000000000000000000000000000000000000000000000000000000000000000000000000000000000000000000000000000000000000000000000000000000000000000000000000000000000000000000000000000000000000000000000000.000        0.000
  24077                JUNCTION        2.75      1794729890123810200000000000000000000000000000000000000000000000000000000000000.000        0.000
  24078                JUNCTION        2.83          1.#IO        0.000
  24079                JUNCTION        2.83          1.#IO        0.000
  24088                JUNCTION        3.08          1.#IO        0.000
  24089                JUNCTION        3.00      273483332360510300000000000000000000000000000000000000000000000000000000000000000000000000000000000000000000000000000000000000000000000000000000000000000000000000000000000000000000000000000000000000000000000000000000000000000000000000000000000000000000000000000000000000000000000000.000        0.000
  24566                JUNCTION        0.83          3.800        0.000
  2790                 JUNCTION        4.33      64019583621082441000000000000000000000000000000000000000000000000000000000000000000000000000000000000000000000000000000000000000000000000000000000000000000000000000000000000000000000000000000000000000000000000000000000000000000000000000000000000000000000000000000000000000000000000000000000000000000000000.000        0.000
  2791                 JUNCTION        4.17      322697390145762030000.000        0.000
  2792                 JUNCTION        4.08      3437906578691220400000000000000000000000000000000000000000000000000000000000000000000000000000000000000000000000000000000000000000000000000000000000000000000000000000000000000000000000000000000000000000000000000000000000000000000000000000000000000000000000000000000000000000000000000000000000000000000.000        0.000
  3822                 JUNCTION        2.75      7911569308736044200000000000000000000000000000000000000000000000000000000000000000000000000000000000000000000000000000000000000000000000000000000000000000000000000000000000000000000000000000000000000000000000000000000000000000000000000000000000000000000000000000000000000000000000000000000000000000000.000        0.000
  3826                 JUNCTION        4.17      1391606804601997400000000000000000000000000000000000000000000000000000000000000000000000000000000000000000000000000000000000000000000000000000000000000000000000000000000000000000000000000000000000000000000000000000000000000000000000000000000000000000000000000000000000000000000000000000000000000.000        0.000
  4169                 JUNCTION        3.00      4583609389327276900000000000000000000000000000000000000000000000000000000000000000000000000000000000000000000000000000000000000000000000000000000000000000000000000000000000000000000000000000000000000000000000000000000000000000000000000000000000000000000000000000000000000000000000000000000000000000000000.000        0.000
  4170                 JUNCTION        3.00      1555206306992350500000000000000000000000000000000000000000000000000000000000000000000000000000000000000000000000000000000000000000000000000000000000000000000000000000000000000000000000000000000000000000000000000000000000000000000000000000000000000000000000000000000000000000000000000000000000000000000.000        0.000
  4171                 JUNCTION       47.33      28696220459454701000000000000000000000000000000000000000000000000000000000000000000000000000000000000000000000000000000000000000000000000000000000000000000000000000000000000000000000000000000000000000000000000000000000000000000000000000000000000000000000000000000000000000000000000000000000000000000000000.000        0.000
  4172                 JUNCTION        2.33      241484751090867620000000000000000000000000000000000000000000000000000000000000000000000000000000000000000000000000000000000000000000000000000000000000000000000000000000000000000000000000000000000000000000000000000000000000000000000000000000000000000000000000000000000000000000000000000000000000000000000.000        0.000
  4182                 JUNCTION        3.25          1.#IO        0.000
[...]
  P-STMPIP-000086      CONDUIT  12980.30     0  01:15    >50.00   64.37    1.00
  
  
  ***************************
  Flow Classification Summary
  ***************************
  
  -------------------------------------------------------------------------------------
                      Adjusted    ---------- Fraction of Time in Flow Class ---------- 
                       /Actual         Up    Down  Sub   Sup   Up    Down  Norm  Inlet 
  Conduit               Length    Dry  Dry   Dry   Crit  Crit  Crit  Crit  Ltd   Ctrl  
  -------------------------------------------------------------------------------------
  10847                   1.00   0.91  0.00  0.00  0.08  0.00  0.00  0.00  0.00  0.00
  10848                   1.00   0.91  0.00  0.00  0.08  0.00  0.00  0.00  0.00  0.00
  10849                   1.00   0.91  0.00  0.00  0.08  0.00  0.00  0.00  0.00  0.00
  10850                   1.00   0.91  0.00  0.00  0.08  0.00  0.00  0.00  0.00  0.00
  11004                   1.00   0.93  0.00  0.00  0.07  0.01  0.00  0.00  0.00  0.00
  11007                   1.00   0.94  0.00  0.00  0.06  0.00  0.00  0.00  0.00  0.00
  11008                   1.00   0.94  0.00  0.00  0.05  0.01  0.00  0.00  0.00  0.00
  11009                   1.00   0.93  0.00  0.00  0.05  0.01  0.00  0.00  0.00  0.00
  11010                   1.00   0.93  0.00  0.00  0.06  0.01  0.00  0.00  0.00  0.00
  11037                   1.00   0.91  0.00  0.00  0.08  0.01  0.00  0.00  0.00  0.00
  11038                   1.00   0.91  0.00  0.00  0.08  0.01  0.00  0.00  0.00  0.00
  11039                   1.00   0.91  0.00  0.00  0.08  0.01  0.00  0.00  0.00  0.00
  11040                   1.00   0.91  0.00  0.00  0.08  0.01  0.00  0.00  0.00  0.00
  11041                   1.00   0.91  0.00  0.00  0.08  0.01  0.00  0.00  0.00  0.00
  11042                   1.00   0.91  0.00  0.00  0.08  0.01  0.00  0.00  0.00  0.00
  11050                   1.00   0.94  0.00  0.00  0.05  0.01  0.00  0.00  0.00  0.00
  11051                   1.00   0.94  0.00  0.00  0.06  0.01  0.00  0.00  0.00  0.00
  11052                   1.00   0.94  0.00  0.00  0.05  0.01  0.00  0.00  0.00  0.00
  11056                   1.00   0.94  0.00  0.00  0.06  0.00  0.00  0.00  0.00  0.00
  11057                   1.00   0.94  0.00  0.00  0.06  0.00  0.00  0.00  0.00  0.00
  11058                   1.00   0.94  0.00  0.00  0.06  0.00  0.00  0.00  0.00  0.00
  11059                   1.00   0.94  0.00  0.00  0.06  0.00  0.00  0.00  0.00  0.00
  130                     1.00   0.01  0.00  0.00  0.05  0.94  0.00  0.00  0.00  0.00
  131                     1.00   0.93  0.00  0.00  0.04  0.00  0.02  0.01  0.00  0.00
  133                     1.00   0.94  0.00  0.00  0.05  0.02  0.00  0.00  0.93  0.00
  15210                   1.00   0.94  0.00  0.00  0.05  0.00  0.00  0.02  0.01  0.00
  15211                   1.00   0.93  0.00  0.00  0.07  0.00  0.00  0.00  0.00  0.00
  15212                   1.00   0.93  0.00  0.00  0.07  0.00  0.00  0.00  0.00  0.00
  15214                   1.00   0.93  0.00  0.00  0.06  0.01  0.00  0.00  0.00  0.00
  15215                   1.00   0.93  0.00  0.00  0.06  0.01  0.00  0.00  0.00  0.00
  15224                   1.00   0.15  0.03  0.00  0.44  0.39  0.00  0.00  0.01  0.00
  15225                   1.00   0.40  0.16  0.00  0.43  0.00  0.00  0.00  0.02  0.00
  16629                   1.00   0.94  0.00  0.00  0.06  0.00  0.00  0.00  0.00  0.00
  16630                   1.00   0.94  0.00  0.00  0.05  0.00  0.00  0.01  0.00  0.00
  16679                   1.00   0.94  0.00  0.00  0.06  0.00  0.00  0.00  0.00  0.00
  16680                   1.00   0.94  0.00  0.00  0.06  0.01  0.00  0.00  0.00  0.00
  16681                   1.00   0.94  0.00  0.00  0.06  0.00  0.00  0.00  0.00  0.00
  16682                   1.00   0.94  0.00  0.00  0.06  0.00  0.00  0.00  0.00  0.00
  16700                   1.00   0.94  0.00  0.00  0.06  0.00  0.00  0.00  0.00  0.00
  169                     1.00   0.93  0.00  0.00  0.06  0.00  0.00  0.00  0.00  0.00
  18755                   1.00   0.03  0.00  0.00  0.01  0.96  0.00  0.00  0.00  0.00
  18756                   1.00   0.97  0.01  0.00  0.02  0.00  0.00  0.00  0.02  0.00
  2018                    1.00   0.94  0.00  0.00  0.06  0.01  0.00  0.00  0.00  0.00
  21                      1.00   0.91  0.00  0.00  0.08  0.01  0.00  0.00  0.00  0.00
  22                      1.00   0.92  0.00  0.00  0.07  0.00  0.00  0.01  0.00  0.00
  423                     1.00   0.94  0.00  0.00  0.06  0.00  0.00  0.00  0.00  0.00
  4234                    1.00   0.01  0.94  0.00  0.05  0.00  0.00  0.00  0.03  0.00
  427                     1.00   0.94  0.00  0.00  0.06  0.00  0.00  0.00  0.00  0.00
  428                     1.00   0.94  0.00  0.00  0.06  0.00  0.00  0.00  0.00  0.00
  428A                    1.00   0.94  0.00  0.00  0.05  0.00  0.00  0.01  0.00  0.00
  4479                    1.00   0.01  0.00  0.00  0.08  0.00  0.00  0.91  0.00  0.00
  789                     1.00   0.94  0.00  0.00  0.06  0.00  0.00  0.00  0.00  0.00
  CDT-13                  1.00   0.01  0.00  0.00  0.99  0.00  0.00  0.00  0.00  0.00
  P-STMPIP-000002         1.00   0.36  0.01  0.00  0.64  0.00  0.00  0.00  0.00  0.00
  P-STMPIP-000003         1.00   0.01  0.00  0.00  0.81  0.18  0.00  0.00  0.75  0.00
  P-STMPIP-000004         1.00   0.01  0.00  0.00  0.56  0.43  0.00  0.00  0.55  0.00
  P-STMPIP-000005         1.00   0.01  0.01  0.00  0.62  0.36  0.00  0.00  0.39  0.00
  P-STMPIP-000006         1.00   0.28  0.44  0.00  0.28  0.00  0.00  0.00  0.03  0.00
  P-STMPIP-000008         1.00   0.01  0.00  0.00  0.54  0.45  0.00  0.00  0.00  0.00
  P-STMPIP-000010         1.00   0.01  0.00  0.00  0.54  0.44  0.00  0.00  0.18  0.00
  P-STMPIP-000011         1.00   0.01  0.00  0.00  0.98  0.01  0.00  0.00  0.45  0.00
  P-STMPIP-000012         1.00   0.01  0.01  0.00  0.98  0.00  0.00  0.00  0.44  0.00
  P-STMPIP-000013         1.00   0.01  0.00  0.00  0.98  0.00  0.00  0.00  0.00  0.00
  P-STMPIP-000014         1.00   0.01  0.00  0.00  0.98  0.00  0.00  0.00  0.00  0.00
  P-STMPIP-000017         1.00   0.02  0.01  0.00  0.66  0.31  0.00  0.00  0.01  0.00
  P-STMPIP-000018         1.00   0.02  0.31  0.00  0.34  0.33  0.00  0.00  0.06  0.00
  P-STMPIP-000019         1.00   0.12  0.23  0.00  0.64  0.00  0.00  0.00  0.00  0.00
  P-STMPIP-000020         1.00   0.02  0.01  0.00  0.31  0.66  0.00  0.00  0.27  0.00
  P-STMPIP-000024         1.00   0.02  0.00  0.00  0.85  0.13  0.00  0.00  0.00  0.00
  P-STMPIP-000026         1.00   0.01  0.00  0.00  0.96  0.03  0.00  0.00  0.00  0.00
  P-STMPIP-000027         1.00   0.01  0.00  0.00  0.92  0.06  0.00  0.00  0.56  0.00
  P-STMPIP-000028         1.00   0.01  0.00  0.00  0.98  0.00  0.00  0.00  0.00  0.00
  P-STMPIP-000029         1.00   0.05  0.27  0.00  0.53  0.14  0.00  0.00  0.10  0.00
  P-STMPIP-000030         1.00   0.04  0.02  0.00  0.89  0.05  0.00  0.00  0.00  0.00
  P-STMPIP-000032         1.00   0.91  0.00  0.00  0.09  0.00  0.00  0.00  0.00  0.00
  P-STMPIP-000036         1.00   0.02  0.12  0.00  0.84  0.02  0.00  0.00  0.00  0.00
  P-STMPIP-000037         1.00   0.01  0.00  0.00  0.55  0.44  0.00  0.00  0.01  0.00
  P-STMPIP-000038         1.00   0.03  0.00  0.00  0.97  0.00  0.00  0.00  0.01  0.00
  P-STMPIP-000039         1.00   0.94  0.00  0.00  0.06  0.00  0.00  0.00  0.00  0.00
  P-STMPIP-000040         1.00   0.94  0.00  0.00  0.06  0.00  0.00  0.00  0.00  0.00
  P-STMPIP-000041         1.00   0.01  0.00  0.00  0.90  0.08  0.00  0.00  0.00  0.00
  P-STMPIP-000042         1.00   0.02  0.00  0.00  0.94  0.04  0.00  0.00  0.01  0.00
  P-STMPIP-000043         1.00   0.01  0.00  0.00  0.98  0.01  0.00  0.00  0.00  0.00
  P-STMPIP-000045         1.00   0.01  0.00  0.00  0.98  0.01  0.00  0.00  0.01  0.00
  P-STMPIP-000046         1.00   0.02  0.13  0.00  0.78  0.02  0.00  0.05  0.15  0.00
  P-STMPIP-000052         1.00   0.01  0.10  0.00  0.44  0.45  0.00  0.00  0.47  0.00
  P-STMPIP-000054         1.00   0.01  0.00  0.00  0.99  0.00  0.00  0.00  0.00  0.00
  P-STMPIP-000055         1.00   0.01  0.00  0.00  0.97  0.01  0.00  0.00  0.00  0.00
  P-STMPIP-000057         1.00   0.94  0.00  0.00  0.06  0.00  0.00  0.01  0.00  0.00
  P-STMPIP-000059         1.00   0.01  0.00  0.00  0.46  0.53  0.00  0.00  0.27  0.00
  P-STMPIP-000060         1.00   0.01  0.00  0.00  0.38  0.61  0.00  0.00  0.00  0.00
  P-STMPIP-000065         1.00   0.02  0.01  0.00  0.97  0.01  0.00  0.00  0.00  0.00
  P-STMPIP-000066         1.00   0.02  0.00  0.00  0.97  0.01  0.00  0.00  0.00  0.00
  P-STMPIP-000068         1.00   0.01  0.00  0.00  0.97  0.02  0.00  0.00  0.02  0.00
  P-STMPIP-000069         1.00   0.06  0.36  0.00  0.13  0.45  0.00  0.00  0.04  0.00
  P-STMPIP-000070         1.00   0.01  0.00  0.00  0.44  0.55  0.00  0.00  0.00  0.00
  P-STMPIP-000071         1.00   0.21  0.00  0.00  0.38  0.41  0.00  0.00  0.03  0.00
  P-STMPIP-000072         1.00   0.05  0.01  0.00  0.36  0.59  0.00  0.00  0.25  0.00
  P-STMPIP-000073         1.00   0.51  0.00  0.00  0.49  0.00  0.00  0.00  0.00  0.00
  P-STMPIP-000074         1.00   0.93  0.00  0.00  0.07  0.00  0.00  0.00  0.00  0.00
  P-STMPIP-000075         1.00   0.91  0.00  0.00  0.08  0.01  0.00  0.00  0.00  0.00
  P-STMPIP-000076         1.00   0.01  0.01  0.00  0.97  0.01  0.00  0.00  0.00  0.00
  P-STMPIP-000077         1.00   0.01  0.01  0.00  0.33  0.65  0.00  0.00  0.00  0.00
  P-STMPIP-000078         1.00   0.34  0.33  0.00  0.33  0.00  0.00  0.00  0.32  0.00
  P-STMPIP-000079         1.00   0.42  0.49  0.00  0.09  0.00  0.00  0.00  0.90  0.00
  P-STMPIP-000080         1.00   0.44  0.06  0.00  0.50  0.00  0.00  0.00  0.00  0.00
  P-STMPIP-000081         1.00   0.51  0.00  0.00  0.49  0.00  0.00  0.00  0.00  0.00
  P-STMPIP-000082         1.00   0.02  0.01  0.00  0.77  0.20  0.00  0.00  0.00  0.00
  P-STMPIP-000083         1.00   0.03  0.02  0.00  0.95  0.00  0.00  0.00  0.00  0.00
  P-STMPIP-000084         1.00   0.93  0.00  0.00  0.07  0.00  0.00  0.00  0.00  0.00
  P-STMPIP-000085         1.00   0.94  0.00  0.00  0.05  0.01  0.00  0.00  0.00  0.00
  P-STMPIP-000086         1.00   0.01  0.00  0.00  0.45  0.53  0.00  0.00  0.00  0.00
  
  
  *************************
  Conduit Surcharge Summary
  *************************
  
  ----------------------------------------------------------------------------
                                                           Hours        Hours 
                         --------- Hours Full --------   Above Full   Capacity
  Conduit                Both Ends  Upstream  Dnstream   Normal Flow   Limited
  ----------------------------------------------------------------------------
  10847                       3.75      3.83     47.33      4.00         0.08
  10848                       3.83      4.00     47.25      3.92         0.25
  10849                      47.42     47.42     47.42      3.92         0.33
  10850                       3.92      3.92     47.42      4.00         0.01
  11004                       3.08     47.33      3.17      3.42         0.25
  11007                       2.58      2.58     47.25      2.58         2.42
  11008                       2.42      2.58     47.17      2.42         2.33
  11009                       2.58     47.17      2.67      2.92         2.08
  11010                       2.92     47.33      3.00      3.17         0.42
  11037                       3.67     46.83      4.08      4.00         0.25
  11038                       3.50     46.92      3.92      4.00         0.50
  11039                       3.75     47.08      4.08      4.08         3.33
  11040                       3.67     47.08      4.00      4.00         0.42
  11041                       3.83      4.17     47.08      4.00         3.25
  11042                       3.75      3.92     47.25      0.83         0.50
  11050                       2.33      2.33     47.33      2.33         0.67
  11051                      46.67     47.25     46.75      2.00         1.75
  11052                       1.25      2.92     45.67      1.67         0.50
  11056                      47.00     47.00     47.42      1.92         0.33
  11057                       2.58      3.00     47.00      2.33         1.92
  11058                       2.58      2.75      2.83      2.33         0.75
  11059                       2.67     47.33      2.75      2.25         2.17
  130                         0.75     47.42      0.75     46.50         0.33
  131                        47.17     47.17     47.42      1.75         1.08
  133                         0.01      2.17      0.01      2.25         0.01
  15210                       1.75      2.58     46.42      1.50         1.25
  15211                       2.33      2.92      2.58      2.33         1.08
  15212                       2.50      2.75      2.92      1.83         1.25
  15214                       2.17      2.58     47.00      1.75         1.33
  15215                       1.92     46.67      2.67      1.58         0.58
  15224                       6.83     43.50     10.25     34.67         1.00
  15225                       0.01      4.50      0.01     20.75         0.01
  16629                       2.50      2.75     47.17      0.33         0.08
  16630                       0.17      2.75     44.83      2.75         0.01
  16679                      47.00     47.08     47.33      0.33         0.50
  16680                       2.50     47.33      2.58      2.58         0.01
  16681                       2.58     47.17      2.67      2.58         0.25
  16682                       2.58     47.25      2.75      2.67         2.42
  16700                       2.58     47.17      2.75      0.50         2.50
  169                         2.17      2.92     46.67      2.00         1.50
  18755                       0.01     45.75      0.83      0.01         0.01
  18756                       0.01      0.83     46.17      0.83         0.01
  2018                        2.83     47.33      2.92      2.42         2.58
  21                          3.75      3.92     47.25      3.92         3.58
  22                          3.75      3.92     47.17      0.50         0.01
  423                         2.75     47.33      2.83      2.75         2.00
  4234                       45.67     45.67     47.33      2.50         0.75
  427                         2.58      2.83     47.08      2.25         2.17
  428                         2.58     47.25      2.75      2.25         2.17
  428A                        2.33      2.75     46.92      2.08         0.25
  4479                       47.25     47.42     47.25     47.33         0.01
  789                         2.50      2.67     47.25      2.75         0.25
  P-STMPIP-000002            14.00     14.33     46.83     30.58        12.42
  P-STMPIP-000003             9.25      9.25     18.33      0.01         0.01
  P-STMPIP-000004            14.83     18.33     15.08     18.33        14.83
  P-STMPIP-000005            14.33     14.50     32.92     11.50        11.33
  P-STMPIP-000006             0.42      1.17     46.08     12.17         0.01
  P-STMPIP-000008            25.42     25.42     25.50     15.50        15.42
  P-STMPIP-000010            25.17     25.50     25.75     21.67        22.17
  P-STMPIP-000011            25.08     25.25     26.08      0.92         0.67
  P-STMPIP-000012            25.75     25.75     47.33     25.42        25.08
  P-STMPIP-000013            47.17     47.42     47.17     47.42        39.50
  P-STMPIP-000014            47.08     47.25     47.25     26.67        25.92
  P-STMPIP-000017            22.17     45.83     23.08     44.75        18.17
  P-STMPIP-000018            10.50     22.67     27.17     31.08         5.17
  P-STMPIP-000019            21.83     47.42     21.83     30.92        21.58
  P-STMPIP-000020             1.33     20.25     15.00     12.33         0.33
  P-STMPIP-000024            38.58     46.67     39.00     46.67        38.00
  P-STMPIP-000026            44.17     45.92     45.33     28.25        22.92
  P-STMPIP-000027            16.50     16.50     39.83     11.17        11.17
  P-STMPIP-000028            47.17     47.42     47.17     18.75        18.25
  P-STMPIP-000029            17.08     17.58     42.17      3.50         2.33
  P-STMPIP-000030            41.42     41.83     44.42     42.75        39.50
  P-STMPIP-000032             4.25     47.25      4.25      4.25         0.08
  P-STMPIP-000036            37.33     38.83     45.50     28.17        26.25
  P-STMPIP-000037            13.75     14.25     46.42     25.50         1.33
  P-STMPIP-000038            45.33     45.75     46.17     46.08        44.42
  P-STMPIP-000039             2.92     47.33      2.92      2.92         0.01
  P-STMPIP-000040             2.92     47.33      2.92      2.92         0.01
  P-STMPIP-000041            40.50     45.33     42.17     36.75        28.67
  P-STMPIP-000042            39.58     39.83     46.83     24.33        18.50
  P-STMPIP-000043            46.67     46.83     46.92     30.83        24.17
  P-STMPIP-000045            46.50     46.92     46.67     41.25        33.92
  P-STMPIP-000046            31.42     31.67     44.17     26.17        21.92
  P-STMPIP-000052            19.33     19.33     25.58     15.33        11.50
  P-STMPIP-000054            47.33     47.33     47.42     47.42        37.42
  P-STMPIP-000055            46.42     47.17     46.67     47.17        44.67
  P-STMPIP-000057            47.33     47.33     47.42      2.83         2.25
  P-STMPIP-000059            20.00     20.00     47.42      0.75         0.01
  P-STMPIP-000060            17.50     47.17     17.75     46.83        17.00
  P-STMPIP-000065            46.08     46.42     46.33     44.17        40.58
  P-STMPIP-000066            45.42     46.33     45.83     45.58        42.08
  P-STMPIP-000068            45.92     46.17     47.17     46.42        45.50
  P-STMPIP-000069             3.75     17.67     24.00      4.00         2.75
  P-STMPIP-000070            17.83     23.42     41.83     18.92         8.33
  P-STMPIP-000071             8.42     28.58     14.33     17.42         6.33
  P-STMPIP-000072             7.58     32.42     20.83     29.50         1.00
  P-STMPIP-000073             0.01     28.83      0.01     22.58         0.01
  P-STMPIP-000074            47.33     47.33     47.33      3.42         3.33
  P-STMPIP-000075             3.92     47.25      3.92      4.00         0.50
  P-STMPIP-000076            46.58     46.75     46.83      8.08         0.92
  P-STMPIP-000077            15.50     46.83     15.67     45.33        15.50
  P-STMPIP-000078             0.01     15.50     31.67     15.75         0.01
  P-STMPIP-000079             3.92      3.92     47.33      4.08         3.58
  P-STMPIP-000080             4.50     36.25      4.50     23.25         4.17
  P-STMPIP-000081             0.01     34.00      0.01     23.08         0.01
  P-STMPIP-000082            31.83     42.92     36.25     31.58        16.75
  P-STMPIP-000083             7.17     47.42      7.17     45.58         3.75
  P-STMPIP-000084             3.25      3.25     47.33      3.25         0.17
  P-STMPIP-000085             2.42      2.58     47.25      2.33         1.83
  P-STMPIP-000086            19.92     47.25     20.08     46.50        18.75
  

  Analysis begun on:  Wed Jan 02 04:45:04 2019
  Analysis ended on:  Wed Jan 02 04:45:05 2019
  Total elapsed time: 00:00:01