
  EPA STORM WATER MANAGEMENT MODEL - VERSION 5.1 (Build 5.1.012)
  --------------------------------------------------------------

    Input and Output FilesSW 1 0 20 
  
  WARNING 04: minimum elevation drop used for Conduit pipe1
  WARNING 04: minimum elevation drop used for Conduit pipe2
  WARNING 04: minimum elevation drop used for Conduit pipe3
  WARNING 04: minimum elevation drop used for Conduit pipe4
  WARNING 04: minimum elevation drop used for Conduit pipe5
  WARNING 04: minimum elevation drop used for Conduit pipe6
  WARNING 04: minimum elevation drop used for Conduit pipe7
  WARNING 04: minimum elevation drop used for Conduit pipe8
  WARNING 04: minimum elevation drop used for Conduit pipe9
  WARNING 04: minimum elevation drop used for Conduit pip10
  WARNING 04: minimum elevation drop used for Conduit pip11
  WARNING 04: minimum elevation drop used for Conduit pip12
  WARNING 04: minimum elevation drop used for Conduit pip13
  WARNING 04: minimum elevation drop used for Conduit pip14
  WARNING 04: minimum elevation drop used for Conduit pip15
  WARNING 04: minimum elevation drop used for Conduit pip16
  WARNING 04: minimum elevation drop used for Conduit pip17
  WARNING 04: minimum elevation drop used for Conduit pip18
  WARNING 04: minimum elevation drop used for Conduit pip19
  WARNING 04: minimum elevation drop used for Conduit pip20
  WARNING 04: minimum elevation drop used for Conduit outlet
  
  *************
  Element Count
  *************
  Number of rain gages ...... 0
  Number of subcatchments ... 0
  Number of nodes ........... 22
  Number of links ........... 21
  Number of pollutants ...... 0
  Number of land uses ....... 0
  
  
  ************
  Node Summary
  ************
                                           Invert      Max.    Ponded    External
  Name                 Type                 Elev.     Depth      Area    Inflow  
  -------------------------------------------------------------------------------
  Inflow               JUNCTION             10.00     10.00       0.0    Yes
  mid1                 JUNCTION             10.00     10.00       0.0
  mid10                JUNCTION             10.00     10.00       0.0
  mid11                JUNCTION             10.00     10.00       0.0
  mid12                JUNCTION             10.00     10.00       0.0
  mid13                JUNCTION             10.00     10.00       0.0
  mid14                JUNCTION             10.00     10.00       0.0
  mid15                JUNCTION             10.00     10.00       0.0
  mid16                JUNCTION             10.00     10.00       0.0
  mid17                JUNCTION             10.00     10.00       0.0
  mid18                JUNCTION             10.00     10.00       0.0
  mid19                JUNCTION             10.00     10.00       0.0
  mid2                 JUNCTION             10.00     10.00       0.0
  mid20                JUNCTION             10.00     10.00       0.0
  mid3                 JUNCTION             10.00     10.00       0.0
  mid4                 JUNCTION             10.00     10.00       0.0
  mid5                 JUNCTION             10.00     10.00       0.0
  mid6                 JUNCTION             10.00     10.00       0.0
  mid7                 JUNCTION             10.00     10.00       0.0
  mid8                 JUNCTION             10.00     10.00       0.0
  mid9                 JUNCTION             10.00     10.00       0.0
  Outlet               OUTFALL              10.00      4.00       0.0
  
  
  ************
  Link Summary
  ************
  Name             From Node        To Node          Type            Length    %Slope Roughness
  ---------------------------------------------------------------------------------------------
  pipe1            Inflow           mid1             CONDUIT         1000.0    0.0001    0.0110
  pipe2            mid1             mid2             CONDUIT         1000.0    0.0001    0.0110
  pipe3            mid2             mid3             CONDUIT         1000.0    0.0001    0.0110
  pipe4            mid3             mid4             CONDUIT         1000.0    0.0001    0.0110
  pipe5            mid4             mid5             CONDUIT         1000.0    0.0001    0.0110
  pipe6            mid5             mid6             CONDUIT         1000.0    0.0001    0.0110
  pipe7            mid6             mid7             CONDUIT         1000.0    0.0001    0.0110
  pipe8            mid7             mid8             CONDUIT         1000.0    0.0001    0.0110
  pipe9            mid8             mid9             CONDUIT         1000.0    0.0001    0.0110
  pip10            mid9             mid10            CONDUIT         1000.0    0.0001    0.0110
  pip11            mid10            mid11            CONDUIT         1000.0    0.0001    0.0110
  pip12            mid11            mid12            CONDUIT         1000.0    0.0001    0.0110
  pip13            mid12            mid13            CONDUIT         1000.0    0.0001    0.0110
  pip14            mid13            mid14            CONDUIT         1000.0    0.0001    0.0110
  pip15            mid14            mid15            CONDUIT         1000.0    0.0001    0.0110
  pip16            mid15            mid16            CONDUIT         1000.0    0.0001    0.0110
  pip17            mid16            mid17            CONDUIT         1000.0    0.0001    0.0110
  pip18            mid17            mid18            CONDUIT         1000.0    0.0001    0.0110
  pip19            mid18            mid19            CONDUIT         1000.0    0.0001    0.0110
  pip20            mid19            mid20            CONDUIT         1000.0    0.0001    0.0110
  outlet           mid20            Outlet           CONDUIT         1000.0    0.0001    0.0110
  
  
  *********************
  Cross Section Summary
  *********************
                                        Full     Full     Hyd.     Max.   No. of     Full
  Conduit          Shape               Depth     Area     Rad.    Width  Barrels     Flow
  ---------------------------------------------------------------------------------------
  pipe1            CIRCULAR             4.00    12.57     1.00     4.00        1   761.94
  pipe2            CIRCULAR             4.00    12.57     1.00     4.00        1   761.94
  pipe3            CIRCULAR             4.00    12.57     1.00     4.00        1   761.94
  pipe4            CIRCULAR             4.00    12.57     1.00     4.00        1   761.94
  pipe5            CIRCULAR             4.00    12.57     1.00     4.00        1   761.94
  pipe6            CIRCULAR             4.00    12.57     1.00     4.00        1   761.94
  pipe7            CIRCULAR             4.00    12.57     1.00     4.00        1   761.94
  pipe8            CIRCULAR             4.00    12.57     1.00     4.00        1   761.94
  pipe9            CIRCULAR             4.00    12.57     1.00     4.00        1   761.94
  pip10            CIRCULAR             4.00    12.57     1.00     4.00        1   761.94
  pip11            CIRCULAR             4.00    12.57     1.00     4.00        1   761.94
  pip12            CIRCULAR             4.00    12.57     1.00     4.00        1   761.94
  pip13            CIRCULAR             4.00    12.57     1.00     4.00        1   761.94
  pip14            CIRCULAR             4.00    12.57     1.00     4.00        1   761.94
  pip15            CIRCULAR             4.00    12.57     1.00     4.00        1   761.94
  pip16            CIRCULAR             4.00    12.57     1.00     4.00        1   761.94
  pip17            CIRCULAR             4.00    12.57     1.00     4.00        1   761.94
  pip18            CIRCULAR             4.00    12.57     1.00     4.00        1   761.94
  pip19            CIRCULAR             4.00    12.57     1.00     4.00        1   761.94
  pip20            CIRCULAR             4.00    12.57     1.00     4.00        1   761.94
  outlet           CIRCULAR             4.00    12.57     1.00     4.00        1   761.94
  
  
  
  *********************************************************
  NOTE: The summary statistics displayed in this report are
  based on results found at every computational time step,  
  not just on results from each reporting time step.
  *********************************************************
  
  ****************
  Analysis Options
  ****************
  Flow Units ............... GPM
  Process Models:
    Rainfall/Runoff ........ NO
    RDII ................... NO
    Snowmelt ............... NO
    Groundwater ............ NO
    Flow Routing ........... YES
    Ponding Allowed ........ NO
    Water Quality .......... NO
  Flow Routing Method ...... KINWAVE
  Starting Date ............ 02/22/2002 00:00:00
  Ending Date .............. 02/28/2002 13:20:00
  Antecedent Dry Days ...... 0.0
  Report Time Step ......... 00:00:10
  Routing Time Step ........ 1.00 sec
  
  
  **************************        Volume        Volume
  Flow Routing Continuity        acre-feet      10^6 gal
  **************************     ---------     ---------
  Dry Weather Inflow .......         0.000         0.000
  Wet Weather Inflow .......         0.000         0.000
  Groundwater Inflow .......         0.000         0.000
  RDII Inflow ..............         0.000         0.000
  External Inflow ..........         0.003         0.001
  External Outflow .........         0.000         0.000
  Flooding Loss ............         0.000         0.000
  Evaporation Loss .........         0.000         0.000
  Exfiltration Loss ........         0.000         0.000
  Initial Stored Volume ....         0.000         0.000
  Final Stored Volume ......         0.009         0.003
  Continuity Error (%) .....      -204.951
  
  
  ********************************
  Highest Flow Instability Indexes
  ********************************
  All links are stable.
  
  
  *************************
  Routing Time Step Summary
  *************************
  Minimum Time Step           :     1.00 sec
  Average Time Step           :     1.00 sec
  Maximum Time Step           :     1.00 sec
  Percent in Steady State     :     0.00
  Average Iterations per Step :     1.00
  Percent Not Converging      :     0.00
  
  
  ******************
  Node Depth Summary
  ******************
  
  ---------------------------------------------------------------------------------
                                 Average  Maximum  Maximum  Time of Max    Reported
                                   Depth    Depth      HGL   Occurrence   Max Depth
  Node                 Type         Feet     Feet     Feet  days hr:min        Feet
  ---------------------------------------------------------------------------------
  Inflow               JUNCTION     0.01     0.15    10.15     0  00:15        0.15
  mid1                 JUNCTION     0.02     0.19    10.19     0  08:14        0.19
  mid10                JUNCTION     0.04     0.08    10.08     3  22:44        0.08
  mid11                JUNCTION     0.03     0.08    10.08     4  10:49        0.08
  mid12                JUNCTION     0.03     0.08    10.08     4  23:11        0.08
  mid13                JUNCTION     0.02     0.08    10.08     5  11:48        0.08
  mid14                JUNCTION     0.02     0.08    10.08     6  00:42        0.08
  mid15                JUNCTION     0.01     0.07    10.07     6  13:19        0.07
  mid16                JUNCTION     0.01     0.06    10.06     6  13:19        0.06
  mid17                JUNCTION     0.00     0.03    10.03     6  13:19        0.03
  mid18                JUNCTION     0.00     0.01    10.01     5  17:51        0.01
  mid19                JUNCTION     0.00     0.00    10.00     6  05:56        0.00
  mid2                 JUNCTION     0.03     0.14    10.14     0  13:15        0.14
  mid20                JUNCTION     0.00     0.00    10.00     0  00:00        0.00
  mid3                 JUNCTION     0.04     0.12    10.12     0  21:00        0.12
  mid4                 JUNCTION     0.04     0.11    10.11     1  05:52        0.11
  mid5                 JUNCTION     0.04     0.10    10.10     1  15:30        0.10
  mid6                 JUNCTION     0.04     0.10    10.10     2  01:42        0.10
  mid7                 JUNCTION     0.04     0.09    10.09     2  12:23        0.09
  mid8                 JUNCTION     0.04     0.09    10.09     2  23:29        0.09
  mid9                 JUNCTION     0.04     0.09    10.09     3  10:56        0.09
  Outlet               OUTFALL      0.00     0.00    10.00     0  00:00        0.00
  
  
  *******************
  Node Inflow Summary
  *******************
  
  -------------------------------------------------------------------------------------------------
                                  Maximum  Maximum                  Lateral       Total        Flow
                                  Lateral    Total  Time of Max      Inflow      Inflow     Balance
                                   Inflow   Inflow   Occurrence      Volume      Volume       Error
  Node                 Type           GPM      GPM  days hr:min    10^6 gal    10^6 gal     Percent
  -------------------------------------------------------------------------------------------------
  Inflow               JUNCTION      2.00     2.00     0  00:15     0.00096     0.00096       0.000
  mid1                 JUNCTION      0.00     3.43     0  08:14           0      0.0014       0.000
  mid10                JUNCTION      0.00     0.57     3  22:44           0     0.00182       0.000
  mid11                JUNCTION      0.00     0.53     4  10:49           0     0.00164       0.000
  mid12                JUNCTION      0.00     0.50     4  23:11           0     0.00141       0.000
  mid13                JUNCTION      0.00     0.47     5  11:48           0     0.00113       0.000
  mid14                JUNCTION      0.00     0.45     6  00:42           0    0.000812       0.000
  mid15                JUNCTION      0.00     0.43     6  13:19           0    0.000464       0.000
  mid16                JUNCTION      0.00     0.32     6  13:19           0    0.000155       0.000
  mid17                JUNCTION      0.00     0.06     6  13:19           0   9.35e-006       0.000
  mid18                JUNCTION      0.00     0.00     5  17:51           0   1.11e-006       0.000 gal
  mid19                JUNCTION      0.00     0.00     6  05:56           0   1.04e-007       0.000 gal
  mid2                 JUNCTION      0.00     1.69     0  13:15           0     0.00168       0.000
  mid20                JUNCTION      0.00     0.00     0  00:00           0           0       0.000 gal
  mid3                 JUNCTION      0.00     1.26     0  21:00           0      0.0019       0.000
  mid4                 JUNCTION      0.00     1.04     1  05:52           0     0.00202       0.000
  mid5                 JUNCTION      0.00     0.90     1  15:30           0     0.00209       0.000
  mid6                 JUNCTION      0.00     0.80     2  01:42           0     0.00212       0.000
  mid7                 JUNCTION      0.00     0.72     2  12:23           0      0.0021       0.000
  mid8                 JUNCTION      0.00     0.66     2  23:29           0     0.00205       0.000
  mid9                 JUNCTION      0.00     0.61     3  10:56           0     0.00196       0.000
  Outlet               OUTFALL       0.00     0.00     0  00:00           0           0       0.000 gal
  
  
  *********************
  Node Flooding Summary
  *********************
  
  No nodes were flooded.
  
  
  ***********************
  Outfall Loading Summary
  ***********************
  
  -----------------------------------------------------------
                         Flow       Avg       Max       Total
                         Freq      Flow      Flow      Volume
  Outfall Node           Pcnt       GPM       GPM    10^6 gal
  -----------------------------------------------------------
  Outlet                 0.00      0.00      0.00       0.000
  -----------------------------------------------------------
  System                 0.00      0.00      0.00       0.000
  
  
  ********************
  Link Flow Summary
  ********************
  
  -----------------------------------------------------------------------------
                                 Maximum  Time of Max   Maximum    Max/    Max/
                                  |Flow|   Occurrence   |Veloc|    Full    Full
  Link                 Type          GPM  days hr:min    ft/sec    Flow   Depth
  -----------------------------------------------------------------------------
  pipe1                CONDUIT      3.43     0  08:14      0.10    0.00    0.04
  pipe2                CONDUIT      1.69     0  13:15      0.03    0.00    0.03
  pipe3                CONDUIT      1.26     0  21:00      0.03    0.00    0.03
  pipe4                CONDUIT      1.04     1  05:52      0.03    0.00    0.03
  pipe5                CONDUIT      0.90     1  15:30      0.02    0.00    0.03
  pipe6                CONDUIT      0.80     2  01:42      0.02    0.00    0.02
  pipe7                CONDUIT      0.72     2  12:23      0.02    0.00    0.02
  pipe8                CONDUIT      0.66     2  23:29      0.02    0.00    0.02
  pipe9                CONDUIT      0.61     3  10:56      0.02    0.00    0.02
  pip10                CONDUIT      0.57     3  22:44      0.02    0.00    0.02
  pip11                CONDUIT      0.53     4  10:49      0.02    0.00    0.02
  pip12                CONDUIT      0.50     4  23:11      0.02    0.00    0.02
  pip13                CONDUIT      0.47     5  11:48      0.02    0.00    0.02
  pip14                CONDUIT      0.45     6  00:42      0.02    0.00    0.02
  pip15                CONDUIT      0.43     6  13:19      0.02    0.00    0.02
  pip16                CONDUIT      0.32     6  13:19      0.01    0.00    0.02
  pip17                CONDUIT      0.06     6  13:19      0.00    0.00    0.01
  pip18                CONDUIT      0.00     5  17:51      0.00    0.00    0.00
  pip19                CONDUIT      0.00     6  05:56      0.00    0.00    0.00
  pip20                CONDUIT      0.00     0  00:00      0.00    0.00    0.00
  outlet               CONDUIT      0.00     0  00:00      0.00    0.00    0.00
  
  
  *************************
  Conduit Surcharge Summary
  *************************
  
  No conduits were surcharged.
  

  Analysis begun on:  Wed Jan 02 04:45:24 2019
  Analysis ended on:  Wed Jan 02 04:45:51 2019
  Total elapsed time: 00:00:27