
  EPA STORM WATER MANAGEMENT MODEL - VERSION 5.1 (Build 5.1.012)
  --------------------------------------------------------------

   DERM C-8 100 YEAR STORM 4/24/96 117302.A5.F0 RUN_E10 
  
  WARNING 01: wet weather time step reduced to recording interval for Rain Gage GAUGE1
  WARNING 04: minimum elevation drop used for Conduit GDC32803
  WARNING 04: minimum elevation drop used for Conduit GDC32802
  WARNING 04: minimum elevation drop used for Conduit C867500
  WARNING 04: minimum elevation drop used for Conduit GDC27600
  WARNING 04: minimum elevation drop used for Conduit OLC03000
  WARNING 04: minimum elevation drop used for Conduit OLC03001
  WARNING 04: minimum elevation drop used for Conduit GDC14400
  WARNING 04: minimum elevation drop used for Conduit C849
  WARNING 04: minimum elevation drop used for Conduit GDC17500
  WARNING 04: minimum elevation drop used for Conduit C848
  WARNING 04: minimum elevation drop used for Conduit GDC21901
  WARNING 04: minimum elevation drop used for Conduit C847
  WARNING 04: minimum elevation drop used for Conduit GDC21900
  WARNING 04: minimum elevation drop used for Conduit RRC29101
  WARNING 04: minimum elevation drop used for Conduit RRC29102
  WARNING 04: minimum elevation drop used for Conduit RRC26700
  WARNING 04: minimum elevation drop used for Conduit RRC29100
  WARNING 04: minimum elevation drop used for Conduit OLC03400
  WARNING 04: minimum elevation drop used for Conduit C854900
  WARNING 04: minimum elevation drop used for Conduit C847900
  WARNING 04: minimum elevation drop used for Conduit OLC02100
  WARNING 04: minimum elevation drop used for Conduit OLC05920
  WARNING 04: minimum elevation drop used for Conduit OLC06540
  WARNING 04: minimum elevation drop used for Conduit OLC08150
  WARNING 04: minimum elevation drop used for Conduit OLC10200
  WARNING 04: minimum elevation drop used for Conduit OLC06873
  WARNING 04: minimum elevation drop used for Conduit BUR01900
  WARNING 04: minimum elevation drop used for Conduit BUR01901
  WARNING 04: minimum elevation drop used for Conduit C838700
  WARNING 04: minimum elevation drop used for Conduit C837400
  WARNING 04: minimum elevation drop used for Conduit C834000
  WARNING 04: minimum elevation drop used for Conduit OLC03500
  WARNING 04: minimum elevation drop used for Conduit OLC03499
  WARNING 04: minimum elevation drop used for Conduit 1602000
  WARNING 04: minimum elevation drop used for Conduit 1602001
  WARNING 04: minimum elevation drop used for Conduit C827301
  WARNING 04: minimum elevation drop used for Conduit C827300
  WARNING 04: minimum elevation drop used for Conduit C821400
  WARNING 04: minimum elevation drop used for Conduit C819100
  WARNING 04: minimum elevation drop used for Conduit C815600
  WARNING 04: minimum elevation drop used for Conduit C810000
  WARNING 04: minimum elevation drop used for Conduit SPC01200
  WARNING 04: minimum elevation drop used for Conduit C846a
  WARNING 04: minimum elevation drop used for Conduit C846b
  WARNING 04: minimum elevation drop used for Conduit C829a
  WARNING 04: minimum elevation drop used for Conduit C830a
  WARNING 04: minimum elevation drop used for Conduit C830b
  WARNING 04: minimum elevation drop used for Conduit C866500
  WARNING 04: minimum elevation drop used for Conduit C857100
  WARNING 04: minimum elevation drop used for Conduit GDC32801
  WARNING 04: minimum elevation drop used for Conduit GDC32800
  WARNING 04: minimum elevation drop used for Conduit C869000
  WARNING 04: minimum elevation drop used for Conduit GDC29700
  WARNING 04: minimum elevation drop used for Conduit RRC34500
  WARNING 04: minimum elevation drop used for Conduit RRC33900
  WARNING 04: minimum elevation drop used for Conduit RRC33500
  WARNING 04: minimum elevation drop used for Conduit RRC32900
  WARNING 04: minimum elevation drop used for Conduit RRC31700
  WARNING 04: minimum elevation drop used for Conduit OLC09900
  WARNING 04: minimum elevation drop used for Conduit OLC06600
  WARNING 04: minimum elevation drop used for Conduit C804c
  WARNING 04: minimum elevation drop used for Conduit C804d
  WARNING 04: minimum elevation drop used for Conduit C843900
  WARNING 04: minimum elevation drop used for Conduit OLC11440
  WARNING 02: maximum depth increased for Node N-C8-045
  WARNING 02: maximum depth increased for Node N-C8-040
  
  *************
  Element Count
  *************
  Number of rain gages ...... 7
  Number of subcatchments ... 127
  Number of nodes ........... 159
  Number of links ........... 116
  Number of pollutants ...... 0
  Number of land uses ....... 0
  
  
  ****************
  Raingage Summary
  ****************
                                                      Data       Recording
  Name                 Data Source                    Type       Interval 
  ------------------------------------------------------------------------
  GAUGE1               RN#1                           CUMULATIVE  15 min.
  GAUGE2               RN#2                           CUMULATIVE  15 min.
  GAUGE3               RN#3                           CUMULATIVE  15 min.
  GAUGE4               RN#4                           CUMULATIVE  15 min.
  GAUGE5               RN#5                           CUMULATIVE  15 min.
  GAUGE6               RN#6                           CUMULATIVE  15 min.
  GAUGE7               RN#7                           CUMULATIVE  15 min.
  
  
  ********************
  Subcatchment Summary
  ********************
  Name                       Area     Width   %Imperv    %Slope Rain Gage            Outlet              
  -----------------------------------------------------------------------------------------------------------
  N-C848-W#1               132.50   4950.00     12.00    0.0300 GAUGE2               N-C848-W            
  N-C846-W#1                85.05  10260.00     33.90    0.0300 GAUGE2               N-C846-W            
  N-C814-W#1                92.36   5362.50     19.70    0.0300 GAUGE3               N-C814-W            
  N-C814-E#1                11.41   4050.00     28.40    0.1200 GAUGE3               N-C814-E            
  N-GD-005#1                75.71   5670.00     22.60    0.0300 GAUGE3               N-GD-005            
  N-LKNESS#1               166.67   7320.00     44.70    0.0500 GAUGE3               N-LKNESS            
  N-C8-055#1               151.69   4387.50     64.20    0.1500 GAUGE4               N-C8-055            
  N-C8-055#2                38.90   6720.00      4.60    0.5600 GAUGE4               N-C8-055            
  N-C811-W#1                63.81   4372.50     41.80    0.0500 GAUGE4               N-C811-W            
  N-C843-N#1                 2.64   3300.00     99.10    0.5000 GAUGE3               N-C843-N            
  N-C8-050#1               227.34   7290.00     40.30    0.0300 GAUGE4               N-C8-050            
  N-C807-N#1                11.05   5550.00     68.00    0.5000 GAUGE4               N-C807-N            
  N-C808-S#1                 8.63   1560.00     65.80    0.5000 GAUGE4               N-C808-S            
  N-C809-S#1                15.48   4680.00     45.10    0.0300 GAUGE4               N-C809-S            
  N-C815-W#1                23.71   6960.00     32.20    0.5000 GAUGE4               N-C815-W            
  N-C815-W#2               707.10   7950.00      1.30    0.0300 GAUGE4               N-C815-W            
  N-C816-W#1               132.88   6900.00     17.90    0.0300 GAUGE4               N-C816-W            
  N-C824-W#1               398.80   4360.50     31.90    0.0300 GAUGE5               N-C824-W            
  N-C824-E#1                 6.94   3300.00     62.50    0.5000 GAUGE5               N-C824-E            
  N-C824-E#2                12.10   4703.00     18.00    0.0500 GAUGE5               N-C824-E            
  N-C824-E#3                19.90   3510.00     25.60    0.0800 GAUGE5               N-C824-E            
  N-C817-E#1                 8.94   3840.00     14.60    0.0500 GAUGE5               N-C817-E            
  N-C817-E#2                12.60   4418.00     36.70    0.0800 GAUGE5               N-C817-E            
  N-C817-W#1                17.11   8550.00     64.80    0.5000 GAUGE5               N-C817-W            
  N-C8-045#1                13.12   4440.00     32.70    0.0300 GAUGE6               N-C8-045            
  N-C8-045#2                 4.50   1560.00     31.20    0.1500 GAUGE6               N-C8-045            
  N-C8-045#3                 9.40   3900.00     64.50    0.5000 GAUGE5               N-C8-045            
  N-C820-W#1                29.50   5670.00     25.60    0.1800 GAUGE5               N-C820-W            
  N-C821-W#1                19.63   7837.50     72.30    0.5000 GAUGE5               N-C821-W            
  N-OL-015#1                49.57   9450.00     42.00    0.0300 GAUGE6               N-OL-015            
  N-OL-010#1                 3.86   1530.00     15.20    0.0700 GAUGE6               N-OL-010            
  N-OL-010#2                36.30   5355.00     46.30    0.1400 GAUGE6               N-OL-010            
  N-OL-010#3                 5.50   2250.00     26.10    0.1600 GAUGE6               N-OL-010            
  N-OL-010#4                 3.00   1575.00     23.20    0.1500 GAUGE6               N-OL-010            
  N-C8-040#1                 9.48   5700.00     30.10    0.0400 GAUGE6               N-C8-040            
  N-C8-040#2                13.50   4050.00     32.40    0.0800 GAUGE6               N-C8-040            
  N-C8-040#3                11.50   3120.00     54.00    0.5000 GAUGE6               N-C8-040            
  N-C8-035#1                49.83   3052.50     25.80    0.0300 GAUGE7               N-C8-035            
  N-C8-035#2                 6.70   4050.00     75.20    0.5000 GAUGE7               N-C8-035            
  N-C834-S#1               249.71  13905.00     48.90    0.1000 GAUGE7               N-C834-S            
  N-LSCOTT#1                87.46   4995.00     46.10    0.0100 GAUGE7               N-LSCOTT            
  N-C833-N#1                32.23   6720.00     40.70    0.0300 GAUGE6               N-C833-N            
  N-C833-N#2                39.63   5310.00     38.80    0.0300 GAUGE7               N-C833-N            
  N-C826-W#1               153.39   7522.50     36.30    0.0300 GAUGE6               N-C826-W            
  N-C826-W#2               375.60  10260.00      1.20    0.0600 GAUGE5               N-C826-W            
  N-C834-N#1                72.86   3240.00     28.90    0.1700 GAUGE7               N-C834-N            
  N-C8-030#1                18.00  10050.00     39.60    0.1600 GAUGE7               N-C8-030            
  N-C8-025#1                44.82  13537.50     70.00    0.5000 GAUGE7               N-C8-025            
  N-C8-025#2                14.30    450.00      5.70    0.1700 GAUGE7               N-C8-025            
  N-C8-025#3               501.60   5700.00      4.40    0.1100 GAUGE7               N-C8-025            
  N-C8-025#4                37.10   4883.00     37.40    0.0500 GAUGE7               N-C8-025            
  N-C8-025#5                14.80  11850.00     32.20    0.1800 GAUGE7               N-C8-025            
  N-C8-020#1                 6.90   4500.00     30.30    0.2300 GAUGE7               N-C8-020            
  N-C8-020#2                96.82   9960.00     32.20    0.5400 GAUGE7               N-C8-020            
  N-C8-020#3               149.10   2250.00     24.20    0.0900 GAUGE7               N-C8-020            
  N-C8-020#4                86.20   2850.00     27.80    0.0500 GAUGE7               N-C8-020            
  N-C8-015#1               177.72   6982.50     28.30    0.0800 GAUGE7               N-C8-015            
  N-C8-015#2               405.74   7050.00     23.20    0.1100 GAUGE7               N-C8-015            
  N-C8-010#1                 8.17   3675.00     69.40    0.3800 GAUGE7               N-C8-010            
  N-C8-010#2               118.20   3150.00     33.90    0.2400 GAUGE7               N-C8-010            
  N-C8-060#1                61.07   8775.00      3.20    0.5600 GAUGE3               N-C8-060            
  CN-LSCOTT#1              489.35   6900.00      0.00    0.0300 GAUGE7               CN-LSCOTT           
  CN-C833-N#1               68.98   5700.00      0.00    0.2000 GAUGE7               CN-C833-N           
  CN-C826-Wb#1              92.33   2025.00      0.00    0.0300 GAUGE6               CN-C826-Wb          
  CN-C831-W#1               71.70   1950.00      0.00    0.1500 GAUGE7               CN-C831-W           
  CN-C8-005#1              139.66   3300.00      0.00    0.2400 GAUGE7               CN-C8-005           
  CN-C8-010a#1             334.90   6450.00      0.00    0.1700 GAUGE7               CN-C8-010a          
  CN-C8-020#1               68.33   3450.00      0.00    0.0700 GAUGE7               CN-C8-020           
  CN-C8-025a#1             890.35  11700.00      0.00    0.1600 GAUGE7               CN-C8-025a          
  CN-C8-030a#1              49.39   1950.00      0.00    0.1600 GAUGE7               CN-C8-030a          
  CN-C8-035a#1             268.68   4800.00      0.00    0.0300 GAUGE7               CN-C8-035a          
  CN-OL-005b#1              59.63   1800.00      0.00    0.0700 GAUGE6               CN-OL-005b          
  CN-OL-010a#1              64.95   6517.50      0.00    0.2000 GAUGE7               CN-OL-010a          
  CN-C834-S#1              449.21   7200.00      0.00    0.0800 GAUGE7               CN-C834-S           
  CN-C8-040a#1             218.79   5700.00      0.00    0.0500 GAUGE6               CN-C8-040a          
  CN-C8-050a#1             311.16   4500.00      0.00    0.0500 GAUGE4               CN-C8-050a          
  N-C802-S#1                11.80   2250.00     36.00    0.0900 GAUGE4               N-C802-S            
  N-C805-N#1                15.55   4920.00     57.90    0.1500 GAUGE4               N-C805-N            
  CN-C802-Sa#1              39.49   5880.00      0.00    0.2100 GAUGE4               CN-C802-Sa          
  CN-C807-N#1              126.18   2850.00      0.00    0.0900 GAUGE4               CN-C807-N           
  CN-C809-S#1              303.80   4800.00      0.00    0.0900 GAUGE4               CN-C809-S           
  CN-C8-055a#1             108.78   1425.00      0.00    0.0400 GAUGE4               CN-C8-055a          
  CN-LKNESSa#1              27.21    450.00      0.00    0.1400 GAUGE3               CN-LKNESSa          
  CN-GD-005a#1             110.22   7155.00      0.00    0.2500 GAUGE3               CN-GD-005a          
  CN-C846-Wa#1             371.85   5550.00      0.00    0.1400 GAUGE2               CN-C846-Wa          
  CN-C847-Wa#1             131.56   4050.00      0.00    0.1100 GAUGE2               CN-C847-Wa          
  CN-C849-W#1              634.97  11550.00      0.00    0.0300 GAUGE1               CN-C849-W           
  CN-C843-N#1               62.66   2250.00      0.00    0.0700 GAUGE3               CN-C843-N           
  CN-C844-N#1              303.00   5850.00      0.00    0.0400 GAUGE2               CN-C844-N           
  CN-C8-060a#1             171.21   3600.00      0.00    0.0300 GAUGE2               CN-C8-060a          
  CN-C820-Wa#1             657.36   7500.00      0.00    0.0500 GAUGE5               CN-C820-Wa          
  CN-C817-W#1              217.01   4500.00      0.00    0.0300 GAUGE5               CN-C817-W           
  CN-C814-W#1              318.37   9720.00      0.00    0.0700 GAUGE3               CN-C814-W           
  CN-C8-010b#1             268.43   3300.00      0.00    0.2400 GAUGE7               CN-C8-010b          
  CN-C8-030c#1              36.45   7800.00      0.00    1.0300 GAUGE7               CN-C8-030c          
  CN-C8-030d#1               8.28   1950.00      0.00    0.1700 GAUGE7               CN-C8-030d          
  CN-C8-030e#1              45.68  10050.00      0.00    0.0800 GAUGE7               CN-C8-030e          
  CN-C8-035b#1             228.06   5700.00      0.00    0.0300 GAUGE7               CN-C8-035b          
  CN-C8-035c#1             129.98   1950.00      0.00    0.0700 GAUGE7               CN-C8-035c          
  CN-C8-040b#1              65.91   2400.00      0.00    0.0900 GAUGE6               CN-C8-040b          
  CN-C8-045a#1             436.00   5550.00      0.00    0.1000 GAUGE5               CN-C8-045a          
  CN-C8-045c#1             117.49   1650.00      0.00    0.0700 GAUGE5               CN-C8-045c          
  CN-C8-045b#1              31.14   4590.00      0.00    0.7300 GAUGE5               CN-C8-045b          
  CN-C8-050b#1              38.28   2280.00      0.00    0.0500 GAUGE4               CN-C8-050b          
  CN-C8-055c#1              45.43   4200.00      0.00    0.1100 GAUGE4               CN-C8-055c          
  CN-C8-055d#1             205.22   4650.00      0.00    0.0700 GAUGE4               CN-C8-055d          
  CN-C8-060b#1             392.73   8505.00      0.00    0.0300 GAUGE2               CN-C8-060b          
  CN-C8-060c#1              51.48   7200.00      0.00    0.0300 GAUGE2               CN-C8-060c          
  CN-C8-060d#1             881.44  11250.00      0.00    0.0300 GAUGE1               CN-C8-060d          
  CN-C814-E#1              190.20   7155.00      0.00    0.0700 GAUGE4               CN-C814-E           
  CN-C824-Wa#1              37.47   5355.00      0.00    0.7300 GAUGE5               CN-C824-Wa          
  CN-C824-Wb#1             443.75   5550.00      0.00    0.0600 GAUGE5               CN-C824-Wb          
  CN-C826-Wa#1             118.27   2250.00      0.00    0.0900 GAUGE6               CN-C826-Wa          
  CN-C846-Wb#1             174.38   7650.00      0.00    0.1500 GAUGE2               CN-C846-Wb          
  CN-C847-Wb#1             142.25   3900.00      0.00    0.0300 GAUGE2               CN-C847-Wb          
  CN-GD-005b#1             122.19   4485.00      0.00    0.0800 GAUGE3               CN-GD-005b          
  CN-GD-005c#1              57.12    900.00      0.00    0.2500 GAUGE3               CN-GD-005c          
  CN-LKNESSb#1              66.86   2700.00      0.00    0.0700 GAUGE3               CN-LKNESSb          
  CN-LKNESSc#1             127.79   8250.00      0.00    0.0900 GAUGE3               CN-LKNESSc          
  CN-OL-005a#1             148.19   5992.50      0.00    0.2000 GAUGE7               CN-OL-005a          
  CN-OL-010b#1              46.63   1800.00      0.00    0.0500 GAUGE6               CN-OL-010b          
  CN-OL-010c#1              52.09   1950.00      0.00    0.0500 GAUGE6               CN-OL-010c          
  CN-OL-010d#1              73.98   3900.00      0.00    0.0500 GAUGE6               CN-OL-010d          
  N-SEABOARD#1              27.65   5565.00     17.40    0.0600 GAUGE7               N-SEABOARD          
  N-SEABOARD#2             217.00   4650.00      1.10    0.0700 GAUGE7               N-SEABOARD          
  CN-C8-055b#1              10.10   2760.00      0.00    0.1200 GAUGE3               CN-C8-055b          
  CN-C8-030b#1             253.40  16200.00      0.00    0.2300 GAUGE7               CN-C8-030b          
  
  
  ************
  Node Summary
  ************
                                           Invert      Max.    Ponded    External
  Name                 Type                 Elev.     Depth      Area    Inflow  
  -------------------------------------------------------------------------------
  N-C850-W             JUNCTION             -1.65     13.65       0.0
  N-C850-E             JUNCTION             -2.61     15.22       0.0
  N-C849-W             JUNCTION             -7.40     20.01       0.0
  N-C849-E             JUNCTION            -10.60     22.60       0.0
  N-C848-E             JUNCTION            -11.70     23.70       0.0
  N-C847-W             JUNCTION            -11.70     23.70       0.0
  N-C847-E             JUNCTION            -11.70     23.70       0.0
  N-C846-E             JUNCTION             -8.30     20.30       0.0
  N-C814-E             JUNCTION            -11.10     23.10       0.0
  N-C813-W             JUNCTION            -11.10     23.10       0.0
  N-C813-E             JUNCTION            -11.10     23.10       0.0
  N-GD-005             JUNCTION             -9.50     21.50       0.0
  N-LKDOON             JUNCTION             -7.80     19.80       0.0
  N-C811-W             JUNCTION            -11.10     23.10       0.0
  N-C811-E             JUNCTION             -5.00     17.00       0.0
  N-C844-S             JUNCTION             -7.40     19.50       0.0
  N-C844-N             JUNCTION             -7.40     19.50       0.0
  N-C842-S             JUNCTION             -7.40     19.50       0.0
  N-C842-N             JUNCTION             -1.15     13.15       0.0
  N-C843-N             JUNCTION             -7.40     19.50       0.0
  N-C843-S             JUNCTION             -7.40     19.50       0.0
  N-C807-N             JUNCTION            -14.60     26.60       0.0
  N-C807-S             JUNCTION             -6.00     18.00       0.0
  N-C808-N             JUNCTION             -6.00     18.00       0.0
  N-C808-S             JUNCTION             -6.00     18.00       0.0
  N-C809-N             JUNCTION             -6.00     18.00       0.0
  N-C809-S             JUNCTION             -6.00     18.00       0.0
  N-C810-N             JUNCTION             -6.00     18.00       0.0
  N-C810-S             JUNCTION             -7.00     19.00       0.0
  N-C815-W             JUNCTION             -5.00     17.00       0.0
  N-C815-E             JUNCTION             -5.00     17.00       0.0
  N-C816-E             JUNCTION             -6.00     18.80       0.0
  N-C816-W             JUNCTION             -5.00     17.00       0.0
  N-C824-W             JUNCTION            -10.41     29.61       0.0
  N-C824-E             JUNCTION            -11.03     30.23       0.0
  N-C819-E             JUNCTION             -5.00     17.00       0.0
  N-C819-W             JUNCTION             -6.50     18.50       0.0
  N-C818-E             JUNCTION             -6.50     18.50       0.0
  N-C818-W             JUNCTION             -6.00     19.00       0.0
  N-C817-E             JUNCTION             -6.00     19.00       0.0
  N-C817-W             JUNCTION             -6.00     18.80       0.0
  N-C8-045             JUNCTION             -8.40     20.40       0.0
  N-C820-W             JUNCTION             -5.00     17.00       0.0
  N-C820-E             JUNCTION             -6.00     18.00       0.0
  N-C821-W             JUNCTION             -6.00     18.00       0.0
  N-C821-E             JUNCTION             -5.00     17.00       0.0
  N-OL-015             JUNCTION             -5.30     17.30       0.0
  N-C823-W             JUNCTION             -5.30     17.30       0.0
  N-C823-E             JUNCTION             -5.30     17.30       0.0
  N-OL-010             JUNCTION             -9.00     21.00       0.0
  N-C8-040             JUNCTION             -9.40     21.40       0.0
  N-C8-035             JUNCTION             -9.40     21.40       0.0
  N-OL-005             JUNCTION             -9.00     21.00       0.0
  N-C832-S             JUNCTION             -4.80     16.80       0.0
  N-C833-N             JUNCTION             -4.80     16.80       0.0
  N-C833-S             JUNCTION             -4.80     16.80       0.0
  N-C831-W             JUNCTION             -2.92     14.92       0.0
  N-C830-N             JUNCTION             -1.97     13.97       0.0
  N-C829-W             JUNCTION             -1.87     13.87       0.0
  N-C828-W             JUNCTION             -2.15     14.15       0.0
  N-C827-W             JUNCTION             -1.77     13.77       0.0
  N-C8-030             JUNCTION            -11.60     23.60       0.0
  N-C8-025             JUNCTION            -11.60     23.60       0.0
  N-SP-050             JUNCTION             -9.80     21.80       0.0
  N-C8-020             JUNCTION            -12.00     24.00       0.0
  N-C8-015             JUNCTION            -13.00     25.00       0.0
  N-C8-010             JUNCTION            -13.00     25.30       0.0
  N-C845-N             JUNCTION             -7.40     19.50       0.0
  N-C845-S             JUNCTION             -7.40     19.50       0.0
  N-C8-060             JUNCTION             -8.90     21.00       0.0
  CN-LSCOTT            JUNCTION            -10.00     22.00       0.0
  CN-C833-N            JUNCTION            -10.00     22.00       0.0
  CN-C826-Wb           JUNCTION            -10.00     22.00       0.0
  CN-C831-W            JUNCTION            -10.00     22.00       0.0
  CN-C8-005            JUNCTION            -10.00     22.00       0.0
  CN-C8-010a           JUNCTION            -10.00     22.00       0.0
  CN-C8-020            JUNCTION            -10.00     22.00       0.0
  CN-C8-025a           JUNCTION            -10.00     22.00       0.0
  CN-C8-030a           JUNCTION            -10.00     22.00       0.0
  CN-C8-035a           JUNCTION            -10.00     22.00       0.0
  CN-OL-005b           JUNCTION            -10.00     22.00       0.0
  CN-OL-010a           JUNCTION            -10.00     22.00       0.0
  CN-C834-S            JUNCTION            -10.00     22.00       0.0
  CN-C8-045            JUNCTION              0.00      0.00       0.0
  CN-C8-040a           JUNCTION            -10.00     22.00       0.0
  CN-C8-050a           JUNCTION            -10.00     22.00       0.0
  N-C801-N             JUNCTION             -3.35     15.35       0.0
  N-C801-S             JUNCTION             -3.28     15.28       0.0
  N-C802-S             JUNCTION             -5.50     17.50       0.0
  N-C803-N             JUNCTION             -5.50     17.50       0.0
  N-C803-S             JUNCTION             -7.00     19.00       0.0
  N-C804-N             JUNCTION             -7.00     19.00       0.0
  N-C804-S             JUNCTION             -6.00     18.00       0.0
  N-C805-N             JUNCTION             -6.00     18.00       0.0
  N-C805-S             JUNCTION             -6.00     18.00       0.0
  N-C806-N             JUNCTION             -6.00     18.00       0.0
  N-C806-S             JUNCTION             -5.00     17.00       0.0
  CN-C802-Sa           JUNCTION            -10.00     22.00       0.0
  CN-C807-N            JUNCTION            -10.00     22.00       0.0
  CN-C809-S            JUNCTION            -10.00     22.00       0.0
  CN-C8-055a           JUNCTION            -10.00     22.00       0.0
  CN-LKNESSa           JUNCTION            -10.00     22.00       0.0
  CN-GD-005a           JUNCTION            -10.00     22.00       0.0
  CN-C846-Wa           JUNCTION            -10.00     22.00       0.0
  CN-C847-Wa           JUNCTION            -10.00     22.00       0.0
  CN-C849-W            JUNCTION            -10.00     22.00       0.0
  CN-C843-N            JUNCTION            -10.00     22.00       0.0
  CN-C844-N            JUNCTION            -10.00     22.00       0.0
  CN-C8-060a           JUNCTION            -10.00     22.00       0.0
  CN-C820-Wa           JUNCTION            -10.00     22.00       0.0
  CN-C817-W            JUNCTION            -10.00     22.00       0.0
  CN-C814-W            JUNCTION            -10.00     22.00       0.0
  CN-C8-010b           JUNCTION            -10.00     22.00       0.0
  CN-C8-030c           JUNCTION            -10.00     22.00       0.0
  CN-C8-030d           JUNCTION            -10.00     22.00       0.0
  CN-C8-030e           JUNCTION            -10.00     22.00       0.0
  CN-C8-035b           JUNCTION            -10.00     22.00       0.0
  CN-C8-035c           JUNCTION            -10.00     22.00       0.0
  CN-C8-040b           JUNCTION            -10.00     22.00       0.0
  CN-C8-045a           JUNCTION            -10.00     22.00       0.0
  CN-C8-045c           JUNCTION            -10.00     22.00       0.0
  CN-C8-045b           JUNCTION            -10.00     22.00       0.0
  CN-C8-050b           JUNCTION            -10.00     22.00       0.0
  CN-C8-055c           JUNCTION            -10.00     22.00       0.0
  CN-C8-055d           JUNCTION            -10.00     22.00       0.0
  CN-C8-060b           JUNCTION            -10.00     22.00       0.0
  CN-C8-060c           JUNCTION            -10.00     22.00       0.0
  CN-C8-060d           JUNCTION            -10.00     22.00       0.0
  CN-C814-E            JUNCTION            -10.00     22.00       0.0
  CN-C824-Wa           JUNCTION            -10.00     22.00       0.0
  CN-C824-Wb           JUNCTION            -10.00     22.00       0.0
  CN-C826-Wa           JUNCTION            -10.00     22.00       0.0
  CN-C846-Wb           JUNCTION            -10.00     22.00       0.0
  CN-C847-Wb           JUNCTION            -10.00     22.00       0.0
  CN-GD-005b           JUNCTION            -10.00     22.00       0.0
  CN-GD-005c           JUNCTION            -10.00     22.00       0.0
  CN-LKNESSb           JUNCTION            -10.00     22.00       0.0
  CN-LKNESSc           JUNCTION            -10.00     22.00       0.0
  CN-OL-005a           JUNCTION            -10.00     22.00       0.0
  CN-OL-010b           JUNCTION            -10.00     22.00       0.0
  CN-OL-010c           JUNCTION            -10.00     22.00       0.0
  CN-OL-010d           JUNCTION            -10.00     22.00       0.0
  N-OL-020             JUNCTION             -8.30     20.30       0.0
  CN-C8-055b           JUNCTION              0.00      0.00       0.0
  CN-C8-030b           JUNCTION              0.00      0.00       0.0
  ADVNL                JUNCTION              0.00      1.00       0.0
  NEWSUB               JUNCTION              0.00      1.00       0.0
  N-C848-W             STORAGE             -10.60     22.60       0.0
  N-C846-W             STORAGE             -11.70     23.70       0.0
  N-C814-W             STORAGE              -4.20     16.20       0.0
  N-LKNESS             STORAGE              -7.20     19.20       0.0
  N-C8-055             STORAGE              -8.05     20.05       0.0
  N-C8-050             STORAGE             -14.60     26.60       0.0
  N-C834-S             STORAGE             -11.60     23.60       0.0
  N-LSCOTT             STORAGE              -4.01     16.01       0.0
  N-C826-W             STORAGE               0.43     11.57       0.0
  N-C834-N             STORAGE              -2.22     14.22       0.0
  N-SEABOARD           STORAGE              -1.00     13.00       0.0
  S-28                 OUTFALL             -13.00     25.00       0.0
  
  
  ************
  Link Summary
  ************
  Name             From Node        To Node          Type            Length    %Slope Roughness
  ---------------------------------------------------------------------------------------------
  C842             N-C842-N         N-C842-S         CONDUIT           31.0   -1.1291    0.0130
  GDC32803         N-C842-S         N-C843-N         CONDUIT         1100.0    0.0001    0.0180
  GDC32802         N-C843-S         N-C844-N         CONDUIT          500.0    0.0002    0.0180
  C867500          N-LKDOON         N-LKNESS         CONDUIT           30.0    0.0033    0.0180
  GDC27600         N-C846-W         N-GD-005         CONDUIT         3200.0    0.0000    0.0180
  C814             N-C814-W         N-C814-E         CONDUIT          105.0   -0.0381    0.0130
  OLC03000         N-C814-E         N-C813-W         CONDUIT         3200.0    0.0000    0.0180
  C813             N-C813-W         N-C813-E         CONDUIT          126.5    0.2055    0.0280
  OLC03001         N-C813-E         N-C811-W         CONDUIT         2000.0    0.0001    0.0180
  C811             N-C811-W         N-C811-E         CONDUIT          165.0   -0.2909    0.0280
  C850             N-C850-W         N-C850-E         CONDUIT           81.0    1.1853    0.0280
  GDC14400         N-C850-E         N-C849-W         CONDUIT         1600.0    0.0001    0.0180
  C849             N-C849-W         N-C849-E         CONDUIT          188.0   -0.0005    0.0130
  GDC17500         N-C849-E         N-C848-W         CONDUIT         1000.0    0.0001    0.0180
  C848             N-C848-W         N-C848-E         CONDUIT          420.0   -0.0002    0.0130
  GDC21901         N-C848-E         N-C847-W         CONDUIT         2100.0    0.0000    0.0180
  C847             N-C847-W         N-C847-E         CONDUIT          172.0    0.0006    0.0130
  GDC21900         N-C847-E         N-C846-W         CONDUIT         3000.0    0.0000    0.0180
  C809             N-C809-S         N-C809-N         CONDUIT           68.5   -1.8982    0.0280
  RRC29101         N-C809-N         N-C808-S         CONDUIT          900.0    0.0001    0.0180
  C808             N-C808-S         N-C808-N         CONDUIT           38.3   -0.2089    0.0280
  RRC29102         N-C808-N         N-C807-S         CONDUIT          300.0    0.0003    0.0180
  C807             N-C807-S         N-C807-N         CONDUIT           44.0    0.4773    0.0280
  RRC26700         N-C811-W         N-C810-S         CONDUIT         1100.0    0.0001    0.0180
  C810             N-C810-S         N-C810-N         CONDUIT           65.0   -0.1385    0.0280
  RRC29100         N-C810-N         N-C809-S         CONDUIT         2550.0    0.0000    0.0180
  OLC03400         N-C811-E         N-C815-W         CONDUIT         5700.0    0.0000    0.0180
  C815             N-C815-W         N-C815-E         CONDUIT           64.0    1.5940    0.0130
  C854900          N-C807-N         N-C8-050         CONDUIT         2600.0    0.0000    0.0180
  C847900          N-C8-050         N-C824-W         CONDUIT         8300.0    0.0000    0.0180
  C824             N-C824-W         N-C824-E         CONDUIT          133.0    0.4662    0.0280
  OLC02100         N-C815-E         N-C816-W         CONDUIT         3000.0    0.0000    0.0180
  C816             N-C816-W         N-C816-E         CONDUIT          109.0    0.0917    0.0280
  OLC05920         N-C816-E         N-C817-W         CONDUIT         2600.0    0.0000    0.0180
  C817             N-C817-W         N-C817-E         CONDUIT          180.0    0.0556    0.0280
  OLC06540         N-C817-E         N-C818-W         CONDUIT          500.0    0.0002    0.0180
  C818             N-C818-W         N-C818-E         CONDUIT          161.0   -0.8385    0.0280
  OLC08150         N-C818-E         N-C819-W         CONDUIT         1400.0    0.0001    0.0180
  OLC10200         N-C819-E         N-C820-W         CONDUIT         1900.0    0.0001    0.0180
  C820             N-C820-W         N-C820-E         CONDUIT           58.0   -3.7094    0.0280
  OLC06873         N-C821-E         N-OL-010         CONDUIT         4400.0    0.0000    0.0180
  BUR01900         N-OL-015         N-C823-W         CONDUIT          700.0    0.0001    0.0180
  C823             N-C823-W         N-C823-E         CONDUIT          125.0   -0.6800    0.0130
  BUR01901         N-C823-E         N-OL-010         CONDUIT          900.0    0.0001    0.0180
  C838700          N-C8-045         N-C8-040         CONDUIT         2600.0    0.0000    0.0180
  C837400          N-C8-040         N-C8-035         CONDUIT         2700.0    0.0000    0.0180
  C834000          N-C8-035         N-C834-S         CONDUIT         2800.0   -0.0000    0.0180
  OLC03500         N-OL-010         N-OL-005         CONDUIT         1900.0    0.0001    0.0180
  OLC03499         N-OL-005         N-C834-S         CONDUIT          100.0    0.0010    0.0180
  C832             N-LSCOTT         N-C832-S         CONDUIT           74.0   -0.0135    0.0280
  1602000          N-C832-S         N-C833-N         CONDUIT          400.0    0.0003    0.0180
  C833             N-C833-N         N-C833-S         CONDUIT          275.0    0.4436    0.0130
  1602001          N-C833-S         N-C8-035         CONDUIT         3700.0    0.0000    0.0180
  C834             N-C834-N         N-C834-S         CONDUIT          605.0   -0.2446    0.0280
  C827301          N-C834-S         N-C8-030         CONDUIT         2500.0    0.0000    0.0180
  C827300          N-C8-030         N-C8-025         CONDUIT         6800.0    0.0000    0.0180
  C821400          N-C8-025         N-C8-020         CONDUIT         3900.0    0.0000    0.0180
  C819100          N-C8-020         N-C8-015         CONDUIT         3500.0    0.0000    0.0180
  C815600          N-C8-015         N-C8-010         CONDUIT         3400.0    0.0000    0.0180
  C810000          N-C8-010         S-28             CONDUIT         3200.0    0.0000    0.0180
  SPC01200         N-SP-050         N-C8-025         CONDUIT         4500.0   -0.0000    0.0180
  C846a            N-C846-W         N-C846-E         CONDUIT          275.0    0.0004    0.0130
  C846b            N-C846-W         N-C846-E         CONDUIT          275.0    0.0004    0.0130
  C844a            N-C844-N         N-C844-S         CONDUIT           33.0   -0.1515    0.0130
  C844b            N-C844-N         N-C844-S         CONDUIT           33.0    0.4546    0.0130
  C843a            N-C843-N         N-C843-S         CONDUIT           49.0   -2.4497    0.0130
  C843b            N-C843-N         N-C843-S         CONDUIT           49.0    1.9391    0.0130
  C826a            N-C826-W         N-C827-W         CONDUIT          143.0    0.8392    0.0280
  C826b            N-C826-W         N-C827-W         CONDUIT          143.0    0.6644    0.0280
  C826c            N-C826-W         N-C827-W         CONDUIT          143.0    0.7693    0.0280
  C826d            N-C826-W         N-C827-W         CONDUIT          143.0    0.9441    0.0280
  C827a            N-C827-W         N-C828-W         CONDUIT           60.0    1.3335    0.0280
  C827b            N-C827-W         N-C828-W         CONDUIT           60.0   -0.5000    0.0280
  C827c            N-C827-W         N-C828-W         CONDUIT           60.0    0.6667    0.0280
  C828a            N-C828-W         N-C829-W         CONDUIT           55.0   -4.6961    0.0280
  C828b            N-C828-W         N-C829-W         CONDUIT           55.0   -2.3643    0.0280
  C828c            N-C828-W         N-C829-W         CONDUIT           55.0   -1.4547    0.0280
  C829a            N-C829-W         N-C830-N         CONDUIT           55.0    0.0018    0.0280
  C829b            N-C829-W         N-C830-N         CONDUIT           55.0    0.1818    0.0280
  C829c            N-C829-W         N-C830-N         CONDUIT           55.0   -0.2727    0.0280
  C830a            N-C830-N         N-C831-W         CONDUIT           54.0    0.0019    0.0280
  C830b            N-C830-N         N-C831-W         CONDUIT           54.0    0.0019    0.0280
  C830c            N-C830-N         N-C831-W         CONDUIT           54.0   -0.9260    0.0280
  C831a            N-C831-W         N-LSCOTT         CONDUIT           67.0   -2.1647    0.0130
  C831b            N-C831-W         N-LSCOTT         CONDUIT           67.0   -0.1791    0.0130
  C831c            N-C831-W         N-LSCOTT         CONDUIT           67.0    0.1493    0.0130
  C819a            N-C819-W         N-C819-E         CONDUIT           34.0   -1.0295    0.0130
  C819b            N-C819-W         N-C819-E         CONDUIT           34.0    0.4412    0.0130
  C819c            N-C819-W         N-C819-E         CONDUIT           34.0    1.0295    0.0130
  C821a            N-C821-W         N-C821-E         CONDUIT          466.0   -0.1652    0.0130
  C821b            N-C821-W         N-C821-E         CONDUIT          466.0    0.0279    0.0130
  C866500          N-LKNESS         N-C8-055         CONDUIT         2800.0    0.0000    0.0180
  C857100          N-C8-055         N-C807-N         CONDUIT         3600.0    0.0000    0.0180
  GDC32801         N-C844-S         N-C845-N         CONDUIT          200.0    0.0005    0.0180
  C845             N-C845-N         N-C845-S         CONDUIT          122.0    1.6806    0.0280
  GDC32800         N-C845-S         N-C8-060         CONDUIT         1100.0    0.0001    0.0180
  C869000          N-C8-060         N-LKDOON         CONDUIT         2400.0   -0.0000    0.0180
  GDC29700         N-GD-005         N-C8-060         CONDUIT         2200.0    0.0000    0.0180
  C801             N-C801-N         N-C801-S         CONDUIT         1170.0   -0.0060    0.0280
  C802             N-C801-S         N-C802-S         CONDUIT          500.0   -0.0920    0.0280
  RRC34500         N-C802-S         N-C803-N         CONDUIT          650.0    0.0002    0.0180
  C803             N-C803-N         N-C803-S         CONDUIT          124.0    0.2016    0.0130
  RRC33900         N-C803-S         N-C804-N         CONDUIT          450.0    0.0002    0.0180
  RRC33500         N-C804-S         N-C805-N         CONDUIT          600.0    0.0002    0.0180
  C805             N-C805-N         N-C805-S         CONDUIT           84.0    3.0967    0.0280
  RRC32900         N-C805-S         N-C806-N         CONDUIT          200.0    0.0005    0.0180
  C806             N-C806-N         N-C806-S         CONDUIT           96.0    0.7292    0.0280
  RRC31700         N-C806-S         N-C807-N         CONDUIT         1200.0    0.0001    0.0180
  OLC09900         N-C846-E         N-OL-020         CONDUIT         3100.0    0.0000    0.0180
  OLC06600         N-OL-020         N-C814-W         CONDUIT         3100.0   -0.0000    0.0180
  C804a            N-C804-N         N-C804-S         CONDUIT           46.0   -3.4804    0.0130
  C804b            N-C804-N         N-C804-S         CONDUIT           46.0   -1.7394    0.0130
  C804c            N-C804-N         N-C804-S         CONDUIT           46.0    0.0022    0.0130
  C804d            N-C804-N         N-C804-S         CONDUIT           46.0    0.0022    0.0130
  C843900          N-C824-E         N-C8-045         CONDUIT         4800.0    0.0000    0.0180
  OLC11440         N-C820-E         N-C821-W         CONDUIT          600.0    0.0002    0.0180
  
  
  *********************
  Cross Section Summary
  *********************
                                        Full     Full     Hyd.     Max.   No. of     Full
  Conduit          Shape               Depth     Area     Rad.    Width  Barrels     Flow
  ---------------------------------------------------------------------------------------
  C842             CIRCULAR             5.00    19.63     1.25     5.00        1   276.74
  GDC32803         NS_GDC32803         19.50  1380.38    11.74   136.10        1   561.35
  GDC32802         NS_GDC32803         19.50  1380.38    11.74   136.10        1   832.62
  C867500          NS_C867500          18.30  3857.98     4.35   670.20        1  4900.71
  GDC27600         NS_GDC27600         21.50  1285.96    10.32   122.20        1   281.30
  C814             CIRCULAR             9.00    63.62     2.25     9.00        1   243.71
  OLC03000         NS_OLC03000         23.10  2482.20     7.58   302.20        1   442.17
  C813             CIRCULAR             8.00    50.27     2.00     8.00        1   191.98
  OLC03001         NS_OLC03000         23.10  2482.20     7.58   302.20        1   559.30
  C811             CIRCULAR             4.00    12.57     1.00     4.00        1    35.97
  C850             CIRCULAR             5.00    19.63     1.25     5.00        1   131.65
  GDC14400         NS_GDC14400         14.61  7450.42     1.81  1330.20        1   723.24
  C849             RECT_CLOSED          9.00    99.00     2.48    11.00        1    47.75
  GDC17500         NS_GDC17500         22.60  2036.26     6.63   275.20        1   593.23
  C848             RECT_CLOSED          9.00    99.00     2.48    11.00        1    31.95
  GDC21901         NS_GDC21901         23.70  2297.64     8.35   247.20        1   538.92
  C847             RECT_CLOSED          9.00   108.00     2.57    12.00        1    55.87
  GDC21900         NS_GDC21901         23.70  2297.64     8.35   247.20        1   450.89
  C809             CIRCULAR            10.00    78.54     2.50    10.00        1  1057.81
  RRC29101         NS_RRC29101         18.00  1256.87     7.24   160.20        1   409.40
  C808             CIRCULAR            12.00   113.10     3.00    12.00        1   570.61
  RRC29102         NS_RRC29101         18.00  1256.87     7.24   160.20        1   709.10
  C807             CIRCULAR            10.00    78.54     2.50    10.00        1   530.43
  RRC26700         NS_RRC26700         19.00  1224.63     8.15   125.20        1   390.52
  C810             CIRCULAR            10.00    78.54     2.50    10.00        1   285.70
  RRC29100         NS_RRC29101         18.00  1256.87     7.24   160.20        1   243.22
  OLC03400         NS_OLC03400         17.00  2348.10     3.54   340.20        1   188.57
  C815             CIRCULAR             4.00    12.57     1.00     4.00        1   181.35
  C854900          NS_C854900          26.60  4686.85    14.31   325.20        1  1414.60
  C847900          NS_C847900          19.60  1826.55     8.61   215.20        1   219.79
  C824             C824_DW             19.20  3317.76     4.79   345.60        1 34138.89
  OLC02100         NS_OLC02100         17.00  7421.82     2.74  1110.20        1   691.92
  C816             CIRCULAR             8.00    50.27     2.00     8.00        1   128.26
  OLC05920         NS_OLC05920         18.80  2381.88     6.47   280.20        1   423.28
  C817             CIRCULAR             8.00    50.27     2.00     8.00        1    99.81
  OLC06540         NS_OLC06540         19.00  2733.00     5.26   400.20        1   964.99
  C818             CIRCULAR            10.00    78.54     2.50    10.00        1   703.08
  OLC08150         NS_OLC08150         18.50  3526.72     5.79   507.20        1   793.33
  OLC10200         NS_OLC10200         17.00  1654.22     5.64   245.20        1   313.89
  C820             CIRCULAR            10.00    78.54     2.50    10.00        1  1478.76
  OLC06873         NS_OLC06873         17.00  1495.30     6.11   230.20        1   196.74
  BUR01900         NS_BUR01900         17.30  1268.24     9.89   120.20        1   576.71
  C823             CIRCULAR             5.00    19.63     1.25     5.00        1   214.77
  BUR01901         NS_BUR01900         17.30  1268.24     9.89   120.20        1   508.61
  C838700          NS_C838700          19.60  2603.42     7.40   317.20        1   506.16
  C837400          NS_C837400          21.40  4555.85     4.84   775.20        1   655.29
  C834000          NS_C834000          19.90  4351.36     6.77   433.20        1   768.62
  OLC03500         NS_OLC03500         21.00  4010.40     4.73   484.20        1   676.50
  OLC03499         NS_OLC03500         21.00  4010.40     4.73   484.20        1  2948.78
  C832             CIRCULAR             8.00    50.27     2.00     8.00        1    49.23
  1602000          NS_1602000          16.80  1118.91     8.56   116.70        1   611.39
  C833             RECT_CLOSED          7.10    63.90     1.98     9.00        1   768.28
  1602001          NS_1602000          16.80  1118.91     8.56   116.70        1   201.02
  C834             CIRCULAR             4.00    12.57     1.00     4.00        1    32.99
  C827301          NS_C827301          23.60  2889.28     8.68   329.20        1   637.19
  C827300          NS_C827301          23.60  2889.28     8.68   329.20        1   386.35
  C821400          NS_C821400          22.20  3518.59     8.97   330.20        1   634.82
  C819100          NS_C819100          24.00  4000.00     9.85   437.20        1   810.92
  C815600          NS_C815600          25.00  3817.84     8.97   420.20        1   737.75
  C810000          NS_C810000          25.00  4457.71     9.71   398.70        1   936.19
  SPC01200         NS_SPC01200         21.80  4826.15     3.38   757.20        1   423.05
  C846a            CIRCULAR             6.00    28.27     1.50     6.00        1     8.08
  C846b            CIRCULAR             6.00    28.27     1.50     6.00        1     8.08
  C844a            CIRCULAR             4.00    12.57     1.00     4.00        1    55.91
  C844b            CIRCULAR             4.00    12.57     1.00     4.00        1    96.84
  C843a            CIRCULAR             3.50     9.62     0.88     3.50        1   157.47
  C843b            CIRCULAR             4.50    15.90     1.13     4.50        1   273.84
  C826a            CIRCULAR             3.00     7.07     0.75     3.00        1    28.37
  C826b            CIRCULAR             3.00     7.07     0.75     3.00        1    25.24
  C826c            CIRCULAR             3.00     7.07     0.75     3.00        1    27.16
  C826d            CIRCULAR             3.00     7.07     0.75     3.00        1    30.09
  C827a            CIRCULAR             4.50    15.90     1.13     4.50        1   105.43
  C827b            CIRCULAR             4.50    15.90     1.13     4.50        1    64.56
  C827c            CIRCULAR             4.50    15.90     1.13     4.50        1    74.55
  C828a            CIRCULAR             4.50    15.90     1.13     4.50        1   197.85
  C828b            CIRCULAR             4.50    15.90     1.13     4.50        1   140.39
  C828c            CIRCULAR             4.50    15.90     1.13     4.50        1   110.12
  C829a            CIRCULAR             4.50    15.90     1.13     4.50        1     3.89
  C829b            CIRCULAR             4.50    15.90     1.13     4.50        1    38.93
  C829c            CIRCULAR             4.50    15.90     1.13     4.50        1    47.68
  C830a            CIRCULAR             3.00     7.07     0.75     3.00        1     1.33
  C830b            CIRCULAR             3.00     7.07     0.75     3.00        1     1.33
  C830c            CIRCULAR             3.00     7.07     0.75     3.00        1    29.80
  C831a            CIRCULAR             5.00    19.63     1.25     5.00        1   383.19
  C831b            CIRCULAR             5.00    19.63     1.25     5.00        1   110.22
  C831c            CIRCULAR             5.00    19.63     1.25     5.00        1   100.62
  C819a            CIRCULAR             6.00    28.27     1.50     6.00        1   429.70
  C819b            CIRCULAR             6.00    28.27     1.50     6.00        1   281.30
  C819c            CIRCULAR             6.00    28.27     1.50     6.00        1   429.70
  C821a            CIRCULAR             4.00    12.57     1.00     4.00        1    58.39
  C821b            CIRCULAR             4.00    12.57     1.00     4.00        1    23.99
  C866500          NS_C866500          19.20  2631.53     8.15   323.20        1   525.68
  C857100          NS_C857100          20.05  2481.54     6.46   379.20        1   374.71
  GDC32801         NS_GDC32803         19.50  1380.38    11.74   136.10        1  1316.49
  C845             CIRCULAR             6.00    28.27     1.50     6.00        1   254.90
  GDC32800         NS_GDC32803         19.50  1380.38    11.74   136.10        1   561.35
  C869000          NS_C869000          19.80 10260.62     3.20  1501.20        1  1188.44
  GDC29700         NS_GDC29700         20.90  2315.68     5.72   265.20        1   412.26
  C801             CIRCULAR             7.00    38.48     1.75     7.00        1    22.94
  C802             CIRCULAR             7.00    38.48     1.75     7.00        1    89.96
  RRC34500         NS_RRC34500         17.50  3663.71     3.17   605.20        1   809.35
  C803             CIRCULAR             7.00    38.48     1.75     7.00        1   286.84
  RRC33900         NS_RRC33900         19.00  4576.44     2.92   795.20        1  1150.98
  RRC33500         NS_RRC33500         18.00  1428.26     6.12   198.70        1   509.22
  C805             CIRCULAR             7.00    38.48     1.75     7.00        1   521.94
  RRC32900         NS_RRC32900         18.00  3848.02     3.40   550.20        1  1606.97
  C806             CIRCULAR             7.00    38.48     1.75     7.00        1   253.27
  RRC31700         NS_RRC31700         17.00  5734.81     2.71   900.20        1   840.93
  OLC09900         NS_OLC09900         20.30  3278.97     4.36   444.20        1   410.04
  OLC06600         NS_OLC06600         16.20  2141.34     4.16   343.20        1   259.75
  C804a            CIRCULAR             3.00     7.07     0.75     3.00        1   124.43
  C804b            CIRCULAR             3.00     7.07     0.75     3.00        1    87.97
  C804c            CIRCULAR             4.00    12.57     1.00     4.00        1     6.70
  C804d            CIRCULAR             3.00     7.07     0.75     3.00        1     3.11
  C843900          NS_C843900          20.40  7199.35    12.23  1115.20        1  1439.96
  OLC11440         NS_OLC11440         18.00  1739.50     6.13   235.20        1   620.99
  
  
  *************
  Shape Summary
  *************

  Shape C824_DW
  Area:  
              0.0004     0.0016     0.0036     0.0064     0.0100 
              0.0144     0.0196     0.0256     0.0324     0.0400 
              0.0484     0.0576     0.0676     0.0784     0.0900 
              0.1024     0.1156     0.1296     0.1444     0.1600 
              0.1764     0.1936     0.2116     0.2304     0.2500 
              0.2704     0.2916     0.3136     0.3364     0.3600 
              0.3844     0.4096     0.4356     0.4624     0.4900 
              0.5184     0.5476     0.5776     0.6084     0.6400 
              0.6724     0.7056     0.7396     0.7744     0.8100 
              0.8464     0.8836     0.9216     0.9604     1.0000 
  Hrad:  
              0.0399     0.0798     0.1196     0.1595     0.1994 
              0.2393     0.2791     0.3190     0.3589     0.3988 
              0.4387     0.4785     0.5184     0.5583     0.5982 
              0.6380     0.6779     0.7178     0.7577     0.7976 
              0.8374     0.8773     0.9172     0.9571     0.9969 
              1.0368     1.0767     1.1166     1.1565     1.1963 
              1.2362     1.2761     1.3160     1.3558     1.3957 
              1.4356     1.4755     1.5154     1.5552     1.5951 
              1.6350     1.6749     1.7147     1.7546     1.7945 
              1.8344     1.8743     1.9141     1.9540     1.0000 
  Width: 
              0.0200     0.0400     0.0600     0.0800     0.1000 
              0.1200     0.1400     0.1600     0.1800     0.2000 
              0.2200     0.2400     0.2600     0.2800     0.3000 
              0.3200     0.3400     0.3600     0.3800     0.4000 
              0.4200     0.4400     0.4600     0.4800     0.5000 
              0.5200     0.5400     0.5600     0.5800     0.6000 
              0.6200     0.6400     0.6600     0.6800     0.7000 
              0.7200     0.7400     0.7600     0.7800     0.8000 
              0.8200     0.8400     0.8600     0.8800     0.9000 
              0.9200     0.9400     0.9600     0.9800     1.0000 
  
  
  
  ****************
  Transect Summary
  ****************

  Transect NS_GDC32803
  Area:  
              0.0044     0.0108     0.0184     0.0270     0.0367 
              0.0471     0.0583     0.0702     0.0828     0.0961 
              0.1100     0.1245     0.1397     0.1555     0.1718 
              0.1885     0.2056     0.2231     0.2410     0.2593 
              0.2779     0.2969     0.3161     0.3357     0.3556 
              0.3759     0.3965     0.4174     0.4387     0.4603 
              0.4823     0.5046     0.5273     0.5503     0.5740 
              0.5994     0.6263     0.6537     0.6812     0.7089 
              0.7368     0.7649     0.7932     0.8217     0.8505 
              0.8797     0.9092     0.9391     0.9694     1.0000 
  Hrad:  
              0.0244     0.0508     0.0747     0.0967     0.1180 
              0.1417     0.1643     0.1862     0.2076     0.2291 
              0.2500     0.2704     0.2904     0.3107     0.3340 
              0.3568     0.3791     0.4011     0.4227     0.4447 
              0.4672     0.4893     0.5112     0.5326     0.5534 
              0.5737     0.5939     0.6138     0.6335     0.6529 
              0.6722     0.6913     0.7102     0.7289     0.7508 
              0.7704     0.7884     0.8068     0.8253     0.8440 
              0.8627     0.8815     0.9003     0.9182     0.9316 
              0.9451     0.9587     0.9724     0.9861     1.0000 
  Width: 
              0.1535     0.1824     0.2100     0.2375     0.2638 
              0.2821     0.3003     0.3186     0.3364     0.3530 
              0.3697     0.3863     0.4030     0.4187     0.4291 
              0.4395     0.4499     0.4603     0.4707     0.4800 
              0.4884     0.4968     0.5051     0.5135     0.5223 
              0.5312     0.5401     0.5490     0.5580     0.5669 
              0.5758     0.5847     0.5936     0.6025     0.6361 
              0.6837     0.7083     0.7133     0.7183     0.7233 
              0.7283     0.7333     0.7383     0.7440     0.7536 
              0.7632     0.7728     0.7824     0.7920     1.0000 

  Transect NS_C867500
  Area:  
              0.0016     0.0039     0.0066     0.0096     0.0129 
              0.0164     0.0201     0.0241     0.0282     0.0325 
              0.0370     0.0417     0.0466     0.0516     0.0568 
              0.0621     0.0675     0.0732     0.0790     0.0850 
              0.0912     0.0976     0.1043     0.1112     0.1183 
              0.1256     0.1331     0.1408     0.1488     0.1572 
              0.1660     0.1753     0.1850     0.1953     0.2059 
              0.2173     0.2299     0.2638     0.3024     0.3643 
              0.4278     0.4914     0.5550     0.6185     0.6821 
              0.7457     0.8093     0.8728     0.9364     1.0000 
  Hrad:  
              0.0634     0.1321     0.1941     0.2515     0.3121 
              0.3737     0.4328     0.4898     0.5471     0.6045 
              0.6604     0.7149     0.7684     0.8225     0.8789 
              0.9321     0.9818     1.0308     1.0791     1.1237 
              1.1615     1.1994     1.2382     1.2775     1.3167 
              1.3559     1.3950     1.4342     1.4608     1.4627 
              1.4686     1.4778     1.4899     1.5045     1.5213 
              1.5555     1.5866     1.4399     1.3408     1.1732 
              1.0715     1.0115     0.9768     0.9584     0.9512 
              0.9518     0.9582     0.9690     0.9832     1.0000 
  Width: 
              0.0336     0.0390     0.0443     0.0497     0.0538 
              0.0570     0.0603     0.0636     0.0666     0.0694 
              0.0721     0.0749     0.0777     0.0803     0.0824 
              0.0848     0.0875     0.0902     0.0929     0.0958 
              0.0994     0.1030     0.1065     0.1098     0.1132 
              0.1166     0.1200     0.1234     0.1280     0.1352 
              0.1425     0.1498     0.1570     0.1643     0.1716 
              0.1884     0.2084     0.5957     0.6241     0.9997 
              0.9998     0.9998     0.9998     0.9998     0.9999 
              0.9999     0.9999     0.9999     1.0000     1.0000 

  Transect NS_GDC27600
  Area:  
              0.0016     0.0056     0.0103     0.0159     0.0223 
              0.0295     0.0375     0.0462     0.0557     0.0657 
              0.0762     0.0871     0.0984     0.1101     0.1222 
              0.1348     0.1478     0.1612     0.1750     0.1893 
              0.2041     0.2193     0.2349     0.2510     0.2676 
              0.2847     0.3025     0.3209     0.3398     0.3591 
              0.3788     0.3989     0.4195     0.4407     0.4627 
              0.4854     0.5089     0.5341     0.5623     0.5917 
              0.6325     0.6733     0.7141     0.7549     0.7958 
              0.8366     0.8774     0.9183     0.9591     1.0000 
  Hrad:  
              0.0205     0.0516     0.0806     0.1071     0.1318 
              0.1554     0.1782     0.2004     0.2267     0.2527 
              0.2790     0.3053     0.3309     0.3558     0.3801 
              0.4039     0.4272     0.4492     0.4710     0.4924 
              0.5136     0.5346     0.5553     0.5759     0.5953 
              0.6092     0.6232     0.6437     0.6640     0.6843 
              0.7052     0.7259     0.7427     0.7550     0.7678 
              0.7809     0.7896     0.8025     0.8140     0.8424 
              0.8505     0.8618     0.8752     0.8902     0.9065 
              0.9238     0.9420     0.9608     0.9802     1.0000 
  Width: 
              0.0782     0.1073     0.1268     0.1464     0.1659 
              0.1855     0.2050     0.2246     0.2380     0.2505 
              0.2617     0.2718     0.2819     0.2921     0.3022 
              0.3123     0.3225     0.3335     0.3445     0.3555 
              0.3665     0.3775     0.3885     0.3994     0.4113 
              0.4279     0.4447     0.4556     0.4666     0.4773 
              0.4874     0.4975     0.5110     0.5289     0.5467 
              0.5645     0.5866     0.6605     0.7027     0.7366 
              0.9986     0.9988     0.9989     0.9991     0.9992 
              0.9994     0.9995     0.9997     0.9998     1.0000 

  Transect NS_OLC03000
  Area:  
              0.0013     0.0049     0.0094     0.0147     0.0207 
              0.0271     0.0339     0.0409     0.0482     0.0557 
              0.0635     0.0716     0.0799     0.0884     0.0971 
              0.1061     0.1154     0.1249     0.1346     0.1445 
              0.1547     0.1651     0.1756     0.1863     0.1972 
              0.2082     0.2194     0.2307     0.2422     0.2541 
              0.2665     0.2793     0.2926     0.3064     0.3207 
              0.3354     0.3514     0.3723     0.3989     0.4411 
              0.4940     0.5501     0.6064     0.6626     0.7188 
              0.7750     0.8313     0.8875     0.9438     1.0000 
  Hrad:  
              0.0303     0.0722     0.1165     0.1567     0.1947 
              0.2433     0.2897     0.3342     0.3770     0.4183 
              0.4592     0.4994     0.5386     0.5767     0.6139 
              0.6504     0.6861     0.7211     0.7555     0.7893 
              0.8227     0.8602     0.8971     0.9333     0.9689 
              1.0039     1.0385     1.0725     1.1012     1.1129 
              1.1257     1.1396     1.1544     1.1702     1.1867 
              1.2039     1.2292     1.2347     1.2245     1.1744 
              1.1078     1.0570     1.0237     1.0024     0.9899 
              0.9839     0.9829     0.9857     0.9916     1.0000 
  Width: 
              0.0473     0.0734     0.0866     0.0998     0.1128 
              0.1175     0.1223     0.1270     0.1318     0.1365 
              0.1410     0.1452     0.1494     0.1537     0.1579 
              0.1621     0.1664     0.1706     0.1748     0.1790 
              0.1833     0.1861     0.1889     0.1917     0.1945 
              0.1973     0.2001     0.2029     0.2070     0.2154 
              0.2239     0.2324     0.2408     0.2493     0.2577 
              0.2662     0.3217     0.4216     0.5397     0.8928 
              0.9875     0.9995     0.9995     0.9996     0.9997 
              0.9997     0.9998     0.9999     0.9999     1.0000 

  Transect NS_GDC14400
  Area:  
              0.0002     0.0004     0.0007     0.0010     0.0013 
              0.0016     0.0019     0.0023     0.0027     0.0031 
              0.0035     0.0040     0.0045     0.0050     0.0055 
              0.0060     0.0066     0.0072     0.0078     0.0084 
              0.0090     0.0097     0.0104     0.0111     0.0118 
              0.0126     0.0134     0.0142     0.0151     0.0163 
              0.0178     0.0610     0.1132     0.1653     0.2175 
              0.2697     0.3218     0.3740     0.4262     0.4783 
              0.5305     0.5827     0.6348     0.6870     0.7392 
              0.7913     0.8435     0.8957     0.9478     1.0000 
  Hrad:  
              0.1453     0.2680     0.3756     0.4727     0.5621 
              0.6457     0.7250     0.8008     0.8738     0.9446 
              1.0135     1.0809     1.1483     1.2151     1.2807 
              1.3452     1.4088     1.4715     1.5335     1.5948 
              1.6555     1.7157     1.7755     1.8348     1.8938 
              1.9524     1.9436     1.9417     1.9483     1.9799 
              2.0232     0.4583     0.3187     0.3097     0.3306 
              0.3630     0.4010     0.4421     0.4853     0.5297 
              0.5750     0.6210     0.6675     0.7144     0.7615 
              0.8089     0.8565     0.9042     0.9521     1.0000 
  Width: 
              0.0042     0.0046     0.0051     0.0055     0.0059 
              0.0063     0.0068     0.0072     0.0076     0.0081 
              0.0085     0.0089     0.0094     0.0098     0.0102 
              0.0106     0.0110     0.0114     0.0118     0.0122 
              0.0126     0.0130     0.0134     0.0138     0.0142 
              0.0146     0.0158     0.0170     0.0182     0.0275 
              0.0297     0.9999     0.9999     0.9999     0.9999 
              0.9999     0.9999     0.9999     0.9999     0.9999 
              0.9999     0.9999     0.9999     1.0000     1.0000 
              1.0000     1.0000     1.0000     1.0000     1.0000 

  Transect NS_GDC17500
  Area:  
              0.0016     0.0045     0.0078     0.0116     0.0158 
              0.0206     0.0258     0.0315     0.0376     0.0439 
              0.0506     0.0576     0.0649     0.0725     0.0803 
              0.0883     0.0965     0.1049     0.1135     0.1222 
              0.1312     0.1404     0.1497     0.1594     0.1695 
              0.1800     0.1910     0.2023     0.2142     0.2265 
              0.2392     0.2524     0.2661     0.2803     0.2949 
              0.3100     0.3255     0.3431     0.3627     0.3893 
              0.4504     0.5114     0.5725     0.6335     0.6946 
              0.7557     0.8168     0.8778     0.9389     1.0000 
  Hrad:  
              0.0428     0.0968     0.1443     0.1877     0.2284 
              0.2672     0.3046     0.3459     0.3878     0.4283 
              0.4676     0.5058     0.5432     0.5855     0.6269 
              0.6671     0.7062     0.7443     0.7814     0.8178 
              0.8534     0.8883     0.9187     0.9407     0.9612 
              0.9824     1.0044     1.0251     1.0456     1.0668 
              1.0888     1.1113     1.1344     1.1579     1.1820 
              1.2064     1.2312     1.2568     1.2810     1.2733 
              1.1560     1.0833     1.0371     1.0082     0.9913 
              0.9830     0.9810     0.9839     0.9905     1.0000 
  Width: 
              0.0423     0.0502     0.0581     0.0660     0.0739 
              0.0819     0.0898     0.0959     0.1013     0.1067 
              0.1121     0.1174     0.1228     0.1261     0.1293 
              0.1324     0.1356     0.1388     0.1419     0.1451 
              0.1483     0.1514     0.1555     0.1618     0.1687 
              0.1756     0.1825     0.1899     0.1975     0.2051 
              0.2127     0.2202     0.2278     0.2354     0.2430 
              0.2506     0.2582     0.3183     0.3226     0.9846 
              0.9994     0.9995     0.9995     0.9996     0.9997 
              0.9997     0.9998     0.9999     0.9999     1.0000 

  Transect NS_GDC21901
  Area:  
              0.0008     0.0033     0.0070     0.0117     0.0169 
              0.0227     0.0289     0.0357     0.0427     0.0501 
              0.0577     0.0657     0.0740     0.0826     0.0915 
              0.1007     0.1102     0.1200     0.1301     0.1406 
              0.1514     0.1626     0.1741     0.1859     0.1981 
              0.2106     0.2235     0.2366     0.2502     0.2642 
              0.2787     0.2937     0.3090     0.3248     0.3410 
              0.3577     0.3748     0.3983     0.4435     0.4914 
              0.5412     0.5921     0.6431     0.6941     0.7451 
              0.7960     0.8470     0.8980     0.9490     1.0000 
  Hrad:  
              0.0280     0.0572     0.0937     0.1308     0.1705 
              0.2077     0.2431     0.2813     0.3207     0.3586 
              0.3953     0.4309     0.4656     0.4994     0.5324 
              0.5648     0.5966     0.6278     0.6571     0.6850 
              0.7136     0.7420     0.7701     0.7980     0.8257 
              0.8533     0.8806     0.9078     0.9307     0.9478 
              0.9706     0.9935     1.0166     1.0398     1.0631 
              1.0866     1.1101     1.1087     1.0381     0.9894 
              0.9546     0.9399     0.9346     0.9349     0.9395 
              0.9474     0.9578     0.9703     0.9845     1.0000 
  Width: 
              0.0326     0.0638     0.0824     0.0975     0.1076 
              0.1177     0.1277     0.1353     0.1413     0.1473 
              0.1533     0.1593     0.1653     0.1714     0.1774 
              0.1834     0.1894     0.1954     0.2020     0.2090 
              0.2156     0.2222     0.2288     0.2355     0.2421 
              0.2487     0.2553     0.2619     0.2700     0.2801 
              0.2886     0.2970     0.3054     0.3139     0.3223 
              0.3308     0.3392     0.8541     0.9174     0.9578 
              0.9943     0.9994     0.9995     0.9996     0.9996 
              0.9997     0.9998     0.9999     0.9999     1.0000 

  Transect NS_RRC29101
  Area:  
              0.0025     0.0068     0.0122     0.0187     0.0260 
              0.0335     0.0413     0.0494     0.0578     0.0665 
              0.0755     0.0848     0.0943     0.1042     0.1143 
              0.1247     0.1354     0.1464     0.1578     0.1695 
              0.1815     0.1939     0.2066     0.2196     0.2328 
              0.2469     0.2619     0.2777     0.2941     0.3113 
              0.3296     0.3487     0.3684     0.3890     0.4107 
              0.4333     0.4567     0.4835     0.5142     0.5496 
              0.5892     0.6331     0.6789     0.7248     0.7706 
              0.8165     0.8624     0.9082     0.9541     1.0000 
  Hrad:  
              0.0348     0.0679     0.1009     0.1313     0.1707 
              0.2104     0.2484     0.2850     0.3202     0.3542 
              0.3872     0.4193     0.4506     0.4811     0.5110 
              0.5402     0.5681     0.5942     0.6200     0.6455 
              0.6711     0.6978     0.7241     0.7502     0.7760 
              0.8095     0.8387     0.8657     0.8908     0.9132 
              0.9326     0.9506     0.9642     0.9761     0.9861 
              0.9961     1.0060     0.9979     0.9960     0.9962 
              0.9899     0.9787     0.9701     0.9663     0.9662 
              0.9690     0.9742     0.9813     0.9900     1.0000 
  Width: 
              0.0762     0.1074     0.1298     0.1523     0.1613 
              0.1675     0.1737     0.1800     0.1862     0.1925 
              0.1987     0.2050     0.2112     0.2174     0.2237 
              0.2299     0.2366     0.2441     0.2516     0.2591 
              0.2664     0.2729     0.2795     0.2860     0.2926 
              0.3179     0.3363     0.3503     0.3644     0.3878 
              0.4081     0.4222     0.4380     0.4612     0.4850 
              0.5007     0.5165     0.6515     0.7231     0.8168 
              0.9105     0.9990     0.9991     0.9992     0.9994 
              0.9995     0.9996     0.9997     0.9999     1.0000 

  Transect NS_RRC26700
  Area:  
              0.0023     0.0059     0.0105     0.0159     0.0220 
              0.0288     0.0362     0.0444     0.0532     0.0626 
              0.0722     0.0821     0.0923     0.1028     0.1135 
              0.1245     0.1357     0.1472     0.1590     0.1712 
              0.1838     0.1968     0.2102     0.2239     0.2379 
              0.2527     0.2686     0.2852     0.3025     0.3208 
              0.3416     0.3641     0.3878     0.4129     0.4408 
              0.4716     0.5050     0.5405     0.5766     0.6137 
              0.6514     0.6896     0.7282     0.7670     0.8058 
              0.8447     0.8835     0.9223     0.9612     1.0000 
  Hrad:  
              0.0348     0.0660     0.0956     0.1232     0.1545 
              0.1825     0.2090     0.2346     0.2598     0.2921 
              0.3255     0.3577     0.3889     0.4193     0.4489 
              0.4777     0.5059     0.5335     0.5578     0.5799 
              0.6018     0.6236     0.6452     0.6688     0.6966 
              0.6819     0.7021     0.7347     0.7650     0.7920 
              0.8113     0.8269     0.8404     0.8518     0.8554 
              0.8558     0.8534     0.8517     0.8584     0.8664 
              0.8755     0.8857     0.8966     0.9088     0.9222 
              0.9364     0.9515     0.9671     0.9833     1.0000 
  Width: 
              0.0779     0.1054     0.1282     0.1506     0.1657 
              0.1828     0.2005     0.2182     0.2359     0.2450 
              0.2519     0.2588     0.2656     0.2725     0.2794 
              0.2862     0.2931     0.3000     0.3087     0.3188 
              0.3289     0.3391     0.3492     0.3578     0.3631 
              0.3962     0.4189     0.4368     0.4556     0.4887 
              0.5617     0.5948     0.6279     0.6611     0.7601 
              0.8260     0.8920     0.9181     0.9442     0.9648 
              0.9765     0.9883     0.9988     0.9989     0.9991 
              0.9993     0.9995     0.9996     0.9998     1.0000 

  Transect NS_OLC03400
  Area:  
              0.0016     0.0035     0.0056     0.0080     0.0104 
              0.0129     0.0156     0.0183     0.0211     0.0241 
              0.0271     0.0303     0.0335     0.0368     0.0403 
              0.0438     0.0476     0.0515     0.0555     0.0598 
              0.0643     0.0689     0.0739     0.0790     0.0844 
              0.0899     0.0957     0.1018     0.1081     0.1146 
              0.1214     0.1284     0.1628     0.2120     0.2613 
              0.3105     0.3598     0.4090     0.4582     0.5075 
              0.5567     0.6060     0.6552     0.7045     0.7537 
              0.8030     0.8522     0.9015     0.9507     1.0000 
  Hrad:  
              0.0864     0.1598     0.2263     0.3025     0.3742 
              0.4421     0.5067     0.5685     0.6278     0.6850 
              0.7403     0.7939     0.8461     0.8969     0.9430 
              0.9801     1.0175     1.0551     1.0928     1.1217 
              1.1508     1.1812     1.2126     1.2451     1.2784 
              1.3125     1.3449     1.3763     1.4086     1.4417 
              1.4756     1.5102     1.2180     0.9818     0.8670 
              0.8079     0.7788     0.7673     0.7670     0.7743 
              0.7870     0.8035     0.8229     0.8445     0.8678 
              0.8924     0.9182     0.9448     0.9721     1.0000 
  Width: 
              0.0352     0.0409     0.0465     0.0485     0.0505 
              0.0525     0.0545     0.0566     0.0586     0.0606 
              0.0626     0.0646     0.0667     0.0687     0.0711 
              0.0743     0.0776     0.0809     0.0841     0.0885 
              0.0930     0.0975     0.1020     0.1065     0.1110 
              0.1155     0.1202     0.1252     0.1302     0.1352 
              0.1402     0.1452     0.9994     0.9995     0.9995 
              0.9995     0.9996     0.9996     0.9996     0.9997 
              0.9997     0.9997     0.9998     0.9998     0.9998 
              0.9999     0.9999     0.9999     1.0000     1.0000 

  Transect NS_C854900
  Area:  
              0.0011     0.0043     0.0104     0.0185     0.0281 
              0.0385     0.0491     0.0602     0.0716     0.0833 
              0.0955     0.1080     0.1208     0.1342     0.1480 
              0.1625     0.1773     0.1926     0.2079     0.2233 
              0.2387     0.2543     0.2698     0.2855     0.3012 
              0.3170     0.3329     0.3488     0.3648     0.3809 
              0.3971     0.4135     0.4301     0.4470     0.4660 
              0.4904     0.5204     0.5572     0.5941     0.6310 
              0.6679     0.7048     0.7417     0.7786     0.8155 
              0.8524     0.8893     0.9262     0.9631     1.0000 
  Hrad:  
              0.0185     0.0345     0.0533     0.0764     0.1026 
              0.1350     0.1665     0.1970     0.2267     0.2555 
              0.2837     0.3113     0.3381     0.3598     0.3812 
              0.4037     0.4278     0.4560     0.4879     0.5194 
              0.5506     0.5813     0.6117     0.6417     0.6714 
              0.7007     0.7296     0.7583     0.7866     0.8146 
              0.8385     0.8609     0.8831     0.9081     0.9342 
              0.9477     0.9475     0.9354     0.9284     0.9254 
              0.9255     0.9281     0.9327     0.9390     0.9468 
              0.9557     0.9656     0.9764     0.9879     1.0000 
  Width: 
              0.0578     0.1256     0.1955     0.2423     0.2745 
              0.2843     0.2942     0.3040     0.3139     0.3237 
              0.3336     0.3435     0.3535     0.3686     0.3837 
              0.3972     0.4080     0.4142     0.4160     0.4179 
              0.4197     0.4215     0.4234     0.4252     0.4270 
              0.4289     0.4307     0.4325     0.4344     0.4362 
              0.4411     0.4470     0.4529     0.4717     0.5846 
              0.7316     0.9794     0.9994     0.9995     0.9995 
              0.9996     0.9996     0.9997     0.9997     0.9998 
              0.9998     0.9999     0.9999     1.0000     1.0000 

  Transect NS_C847900
  Area:  
              0.0010     0.0040     0.0090     0.0148     0.0214 
              0.0287     0.0368     0.0454     0.0545     0.0641 
              0.0742     0.0847     0.0955     0.1065     0.1177 
              0.1290     0.1404     0.1520     0.1638     0.1757 
              0.1878     0.2002     0.2131     0.2265     0.2405 
              0.2550     0.2701     0.2858     0.3021     0.3189 
              0.3363     0.3543     0.3729     0.3921     0.4119 
              0.4323     0.4535     0.4756     0.5018     0.5383 
              0.5845     0.6306     0.6768     0.7230     0.7691 
              0.8153     0.8615     0.9076     0.9538     1.0000 
  Hrad:  
              0.0225     0.0451     0.0736     0.1070     0.1380 
              0.1672     0.1972     0.2273     0.2590     0.2896 
              0.3194     0.3496     0.3850     0.4205     0.4551 
              0.4889     0.5220     0.5544     0.5861     0.6173 
              0.6467     0.6632     0.6797     0.6929     0.7067 
              0.7210     0.7359     0.7512     0.7669     0.7830 
              0.8118     0.8459     0.8782     0.9089     0.9382 
              0.9657     0.9915     1.0151     1.0263     1.0192 
              0.9950     0.9796     0.9706     0.9666     0.9663 
              0.9690     0.9741     0.9812     0.9899     1.0000 
  Width: 
              0.0437     0.0874     0.1187     0.1347     0.1506 
              0.1666     0.1805     0.1929     0.2029     0.2129 
              0.2230     0.2320     0.2362     0.2396     0.2430 
              0.2464     0.2498     0.2532     0.2566     0.2600 
              0.2639     0.2739     0.2840     0.2963     0.3087 
              0.3211     0.3334     0.3458     0.3581     0.3705 
              0.3832     0.3960     0.4089     0.4218     0.4346 
              0.4505     0.4672     0.5267     0.5715     0.9992 
              0.9993     0.9993     0.9994     0.9995     0.9996 
              0.9997     0.9998     0.9998     0.9999     1.0000 

  Transect NS_OLC02100
  Area:  
              0.0005     0.0011     0.0019     0.0030     0.0041 
              0.0054     0.0067     0.0080     0.0095     0.0110 
              0.0125     0.0141     0.0158     0.0176     0.0194 
              0.0213     0.0233     0.0253     0.0274     0.0297 
              0.0319     0.0343     0.0367     0.0391     0.0416 
              0.0441     0.0467     0.0494     0.0521     0.0697 
              0.0978     0.1284     0.1628     0.2011     0.2432 
              0.2892     0.3389     0.3897     0.4406     0.4914 
              0.5423     0.5931     0.6440     0.6949     0.7457 
[...]
  C821a                CONDUIT    176.48     3  00:40     14.19    3.02    1.00
  C821b                CONDUIT    177.17     3  00:36     14.13    7.38    1.00
  C866500              CHANNEL   1070.04     3  00:46      3.23    2.04    0.48
  C857100              CHANNEL    574.55     0  02:40      1.64    1.53    0.51
  GDC32801             CHANNEL     55.93     0  01:02      0.12    0.04    0.49
  C845                 CONDUIT     56.63     0  01:33      4.15    0.22    0.58
  GDC32800             CHANNEL    131.06     3  00:20      0.62    0.23    0.49
  C869000              CHANNEL   1665.35     3  00:33      4.67    1.40    0.50
  GDC29700             CHANNEL    785.36     3  01:25      2.98    1.90    0.53
  C801                 CONDUIT     61.26     3  00:29      2.15    2.67    1.00
  C802                 CONDUIT    118.48     3  00:29      3.76    1.32    1.00
  RRC34500             CHANNEL    278.87     3  00:33      0.77    0.34    0.67
  C803                 CONDUIT    181.40     3  00:45      4.71    0.63    1.00
  RRC33900             CHANNEL    225.33     3  00:45      0.46    0.20    0.69
  RRC33500             CHANNEL    320.47     3  00:45      1.31    0.63    0.66
  C805                 CONDUIT    422.07     3  00:37     10.97    0.81    1.00
  RRC32900             CHANNEL    417.48     3  00:38      1.18    0.26    0.57
  C806                 CONDUIT    415.18     3  00:41     11.71    1.64    0.87
  RRC31700             CHANNEL    408.42     3  00:40      4.22    0.49    0.42
  OLC09900             CHANNEL    551.89     3  00:44      1.85    1.35    0.51
  OLC06600             CHANNEL    648.51     3  00:41      4.34    2.50    0.39
  C804a                CONDUIT     53.93     3  00:46      7.77    0.43    1.00
  C804b                CONDUIT     53.93     3  00:46      7.63    0.61    1.00
  C804c                CONDUIT    115.80     3  00:46      9.22   17.29    1.00
  C804d                CONDUIT     53.93     3  00:46      7.63   17.34    1.00
  C843900              CHANNEL   1818.21     3  00:32      2.91    1.26    0.52
  OLC11440             CHANNEL    657.83     3  00:29      1.37    1.06    0.74
  
  
  ***************************
  Flow Classification Summary
  ***************************
  
  -------------------------------------------------------------------------------------
                      Adjusted    ---------- Fraction of Time in Flow Class ---------- 
                       /Actual         Up    Down  Sub   Sup   Up    Down  Norm  Inlet 
  Conduit               Length    Dry  Dry   Dry   Crit  Crit  Crit  Crit  Ltd   Ctrl  
  -------------------------------------------------------------------------------------
  C842                    1.00   0.00  0.00  0.00  1.00  0.00  0.00  0.00  0.00  0.00
  GDC32803                1.00   0.00  0.00  0.00  1.00  0.00  0.00  0.00  0.00  0.00
  GDC32802                1.00   0.00  0.00  0.00  1.00  0.00  0.00  0.00  0.00  0.00
  C867500                 1.00   0.00  0.00  0.00  1.00  0.00  0.00  0.00  0.00  0.00
  GDC27600                1.00   0.00  0.00  0.00  1.00  0.00  0.00  0.00  0.00  0.00
  C814                    1.00   0.65  0.00  0.00  0.15  0.00  0.02  0.19  0.00  0.00
  OLC03000                1.00   0.00  0.00  0.00  1.00  0.00  0.00  0.00  0.00  0.00
  C813                    1.00   0.00  0.00  0.00  1.00  0.00  0.00  0.00  0.00  0.00
  OLC03001                1.00   0.00  0.00  0.00  1.00  0.00  0.00  0.00  0.00  0.00
  C811                    1.00   0.50  0.02  0.00  0.05  0.00  0.01  0.42  0.74  0.00
  C850                    1.00   0.00  0.51  0.00  0.49  0.00  0.00  0.00  0.63  0.00
  GDC14400                1.00   0.00  0.00  0.00  0.51  0.00  0.00  0.49  0.00  0.00
  C849                    1.00   0.00  0.00  0.00  1.00  0.00  0.00  0.00  0.00  0.00
  GDC17500                1.00   0.00  0.00  0.00  1.00  0.00  0.00  0.00  0.00  0.00
  C848                    1.00   0.00  0.00  0.00  1.00  0.00  0.00  0.00  0.00  0.00
  GDC21901                1.00   0.00  0.00  0.00  1.00  0.00  0.00  0.00  0.00  0.00
  C847                    1.00   0.00  0.00  0.00  1.00  0.00  0.00  0.00  0.00  0.00
  GDC21900                1.00   0.00  0.00  0.00  1.00  0.00  0.00  0.00  0.00  0.00
  C809                    1.00   0.00  0.00  0.00  0.47  0.00  0.53  0.00  0.00  0.00
  RRC29101                1.00   0.00  0.00  0.00  1.00  0.00  0.00  0.00  0.00  0.00
  C808                    1.00   0.00  0.00  0.00  1.00  0.00  0.00  0.00  0.00  0.00
  RRC29102                1.00   0.00  0.00  0.00  1.00  0.00  0.00  0.00  0.00  0.00
  C807                    1.00   0.00  0.00  0.00  0.97  0.00  0.00  0.03  0.00  0.00
  RRC26700                1.00   0.00  0.00  0.00  1.00  0.00  0.00  0.00  0.00  0.00
  C810                    1.00   0.00  0.00  0.00  1.00  0.00  0.00  0.00  0.00  0.00
  RRC29100                1.00   0.00  0.00  0.00  1.00  0.00  0.00  0.00  0.00  0.00
  OLC03400                1.00   0.00  0.00  0.00  1.00  0.00  0.00  0.00  0.00  0.00
  C815                    1.00   0.00  0.00  0.00  1.00  0.00  0.00  0.00  0.00  0.00
  C854900                 1.00   0.00  0.00  0.00  1.00  0.00  0.00  0.00  0.00  0.00
  C847900                 1.00   0.00  0.00  0.00  1.00  0.00  0.00  0.00  0.00  0.00
  C824                    1.00   0.00  0.00  0.00  1.00  0.00  0.00  0.00  0.00  0.00
  OLC02100                1.00   0.00  0.00  0.00  1.00  0.00  0.00  0.00  0.00  0.00
  C816                    1.00   0.00  0.00  0.00  1.00  0.00  0.00  0.00  0.00  0.00
  OLC05920                1.00   0.00  0.00  0.00  1.00  0.00  0.00  0.00  0.00  0.00
  C817                    1.00   0.00  0.00  0.00  1.00  0.00  0.00  0.00  0.00  0.00
  OLC06540                1.00   0.00  0.00  0.00  1.00  0.00  0.00  0.00  0.00  0.00
  C818                    1.00   0.00  0.00  0.00  1.00  0.00  0.00  0.00  0.00  0.00
  OLC08150                1.00   0.00  0.00  0.00  1.00  0.00  0.00  0.00  0.00  0.00
  OLC10200                1.00   0.00  0.00  0.00  1.00  0.00  0.00  0.00  0.00  0.00
  C820                    1.00   0.00  0.00  0.00  0.22  0.00  0.78  0.00  0.00  0.00
  OLC06873                1.00   0.00  0.00  0.00  0.49  0.00  0.00  0.51  0.00  0.00
  BUR01900                1.00   0.00  0.00  0.00  1.00  0.00  0.00  0.00  0.00  0.00
  C823                    1.00   0.00  0.00  0.00  0.04  0.00  0.96  0.00  0.00  0.00
  BUR01901                1.00   0.00  0.00  0.00  0.80  0.00  0.00  0.20  0.00  0.00
  C838700                 1.00   0.00  0.00  0.00  1.00  0.00  0.00  0.00  0.00  0.00
  C837400                 1.00   0.00  0.00  0.00  1.00  0.00  0.00  0.00  0.00  0.00
  C834000                 1.00   0.00  0.00  0.00  1.00  0.00  0.00  0.00  0.00  0.00
  OLC03500                1.00   0.00  0.00  0.00  1.00  0.00  0.00  0.00  0.00  0.00
  OLC03499                1.00   0.00  0.00  0.00  0.99  0.00  0.00  0.01  0.00  0.00
  C832                    1.00   0.00  0.00  0.00  0.99  0.01  0.00  0.00  0.00  0.00
  1602000                 1.00   0.00  0.00  0.00  1.00  0.00  0.00  0.00  0.00  0.00
  C833                    1.00   0.00  0.00  0.00  0.99  0.00  0.00  0.01  0.65  0.00
  1602001                 1.00   0.00  0.00  0.00  0.54  0.00  0.00  0.46  0.00  0.00
  C834                    1.00   0.00  0.00  0.00  0.04  0.00  0.96  0.00  0.00  0.00
  C827301                 1.00   0.00  0.00  0.00  1.00  0.00  0.00  0.00  0.00  0.00
  C827300                 1.00   0.00  0.00  0.00  1.00  0.00  0.00  0.00  0.00  0.00
  C821400                 1.00   0.00  0.00  0.00  0.82  0.00  0.00  0.18  0.00  0.00
  C819100                 1.00   0.00  0.00  0.00  1.00  0.00  0.00  0.00  0.00  0.00
  C815600                 1.00   0.00  0.00  0.00  1.00  0.00  0.00  0.00  0.00  0.00
  C810000                 1.00   0.00  0.00  0.00  1.00  0.00  0.00  0.00  0.00  0.00
  SPC01200                1.00   0.00  0.00  0.00  1.00  0.00  0.00  0.00  0.00  0.00
  C846a                   1.00   0.00  0.00  0.00  1.00  0.00  0.00  0.00  0.00  0.00
  C846b                   1.00   0.00  0.00  0.00  1.00  0.00  0.00  0.00  0.00  0.00
  C844a                   1.00   0.00  0.00  0.00  0.99  0.00  0.01  0.00  0.00  0.00
  C844b                   1.00   0.00  0.00  0.00  0.99  0.00  0.00  0.00  0.01  0.00
  C843a                   1.00   0.00  0.31  0.00  0.68  0.00  0.02  0.00  0.87  0.00
  C843b                   1.00   0.00  0.00  0.00  1.00  0.00  0.00  0.00  0.13  0.00
  C826a                   1.00   0.00  0.00  0.00  1.00  0.00  0.00  0.00  0.00  0.00
  C826b                   1.00   0.00  0.00  0.00  0.68  0.00  0.00  0.32  0.00  0.00
  C826c                   1.00   0.00  0.00  0.00  0.94  0.00  0.00  0.06  0.00  0.00
  C826d                   1.00   0.00  0.00  0.00  1.00  0.00  0.00  0.00  0.20  0.00
  C827a                   1.00   0.00  0.00  0.00  1.00  0.00  0.00  0.00  0.00  0.00
  C827b                   1.00   0.00  0.00  0.00  1.00  0.00  0.00  0.00  0.00  0.00
  C827c                   1.00   0.00  0.00  0.00  1.00  0.00  0.00  0.00  0.00  0.00
  C828a                   1.00   0.00  0.43  0.00  0.41  0.00  0.17  0.00  0.02  0.00
  C828b                   1.00   0.00  0.00  0.00  0.98  0.00  0.02  0.00  0.00  0.00
  C828c                   1.00   0.00  0.00  0.00  0.98  0.00  0.02  0.00  0.00  0.00
  C829a                   1.00   0.01  0.00  0.00  0.99  0.00  0.01  0.00  0.00  0.00
  C829b                   1.00   0.00  0.00  0.00  1.00  0.00  0.00  0.00  0.00  0.00
  C829c                   1.00   0.00  0.00  0.00  0.99  0.01  0.00  0.00  0.00  0.00
  C830a                   1.00   0.28  0.00  0.00  0.13  0.00  0.00  0.59  0.00  0.00
  C830b                   1.00   0.00  0.00  0.00  0.27  0.00  0.01  0.71  0.00  0.00
  C830c                   1.00   0.00  0.00  0.00  0.21  0.00  0.78  0.01  0.00  0.00
  C831a                   1.00   0.00  0.41  0.00  0.54  0.00  0.04  0.00  0.05  0.00
  C831b                   1.00   0.00  0.00  0.00  1.00  0.00  0.00  0.00  0.00  0.00
  C831c                   1.00   0.00  0.00  0.00  0.99  0.00  0.00  0.01  0.00  0.00
  C819a                   1.00   0.00  0.00  0.00  1.00  0.00  0.00  0.00  0.50  0.00
  C819b                   1.00   0.00  0.00  0.00  1.00  0.00  0.00  0.00  0.00  0.00
  C819c                   1.00   0.00  0.00  0.00  1.00  0.00  0.00  0.00  0.00  0.00
  C821a                   1.00   0.00  0.00  0.00  0.16  0.00  0.84  0.00  0.00  0.00
  C821b                   1.00   0.00  0.00  0.00  0.63  0.00  0.00  0.37  0.00  0.00
  C866500                 1.00   0.00  0.00  0.00  1.00  0.00  0.00  0.00  0.00  0.00
  C857100                 1.00   0.00  0.00  0.00  1.00  0.00  0.00  0.00  0.00  0.00
  GDC32801                1.00   0.00  0.00  0.00  1.00  0.00  0.00  0.00  0.00  0.00
  C845                    1.00   0.00  0.00  0.00  0.54  0.00  0.00  0.46  0.31  0.00
  GDC32800                1.00   0.00  0.00  0.00  1.00  0.00  0.00  0.00  0.00  0.00
  C869000                 1.00   0.00  0.00  0.00  1.00  0.00  0.00  0.00  0.00  0.00
  GDC29700                1.00   0.00  0.00  0.00  1.00  0.00  0.00  0.00  0.00  0.00
  C801                    1.00   0.00  0.00  0.00  1.00  0.00  0.00  0.00  0.00  0.00
  C802                    1.00   0.00  0.00  0.00  1.00  0.00  0.00  0.00  0.00  0.00
  RRC34500                1.00   0.00  0.00  0.00  1.00  0.00  0.00  0.00  0.00  0.00
  C803                    1.00   0.00  0.00  0.00  1.00  0.00  0.00  0.00  0.00  0.00
  RRC33900                1.00   0.00  0.00  0.00  1.00  0.00  0.00  0.00  0.00  0.00
  RRC33500                1.00   0.00  0.00  0.00  1.00  0.00  0.00  0.00  0.00  0.00
  C805                    1.00   0.00  0.00  0.00  1.00  0.00  0.00  0.00  0.64  0.00
  RRC32900                1.00   0.00  0.00  0.00  1.00  0.00  0.00  0.00  0.00  0.00
  C806                    1.00   0.00  0.00  0.00  0.74  0.00  0.00  0.26  0.02  0.00
  RRC31700                1.00   0.00  0.00  0.00  1.00  0.00  0.00  0.00  0.00  0.00
  OLC09900                1.00   0.00  0.00  0.00  1.00  0.00  0.00  0.00  0.00  0.00
  OLC06600                1.00   0.00  0.00  0.00  1.00  0.00  0.00  0.00  0.00  0.00
  C804a                   1.00   0.00  0.61  0.00  0.39  0.00  0.01  0.00  0.06  0.00
  C804b                   1.00   0.00  0.47  0.00  0.51  0.00  0.01  0.00  0.07  0.00
  C804c                   1.00   0.00  0.00  0.00  1.00  0.00  0.00  0.00  0.00  0.00
  C804d                   1.00   0.28  0.00  0.00  0.72  0.00  0.00  0.00  0.00  0.00
  C843900                 1.00   0.00  0.00  0.00  1.00  0.00  0.00  0.00  0.00  0.00
  OLC11440                1.00   0.00  0.00  0.00  1.00  0.00  0.00  0.00  0.00  0.00
  
  
  *************************
  Conduit Surcharge Summary
  *************************
  
  ----------------------------------------------------------------------------
                                                           Hours        Hours 
                         --------- Hours Full --------   Above Full   Capacity
  Conduit                Both Ends  Upstream  Dnstream   Normal Flow   Limited
  ----------------------------------------------------------------------------
  C842                        0.01      0.01      0.02      0.01         0.01
  GDC27600                    0.01      0.01      0.01      1.54         0.01
  C813                        0.54      0.54      0.84      0.42         0.01
  OLC03001                    0.01      0.01      0.01      0.22         0.01
  C811                        0.01      5.45      0.01      5.51         0.01
  C849                        3.36      3.36      3.36      0.92         0.01
  C848                        5.96      5.96      6.18      3.40         2.02
  C847                        9.34      9.36      9.34      1.79         3.18
  RRC29101                    0.01      0.01      0.01      0.47         0.01
  C808                        0.01      0.01      0.01      0.21         0.01
  C807                        0.01      0.01      0.01      0.30         0.01
  RRC26700                    0.01      0.01      0.01      0.13         0.01
  C810                        0.01      0.01      0.01      0.90         0.01
  RRC29100                    0.01      0.01      0.01      1.14         0.01
  OLC03400                    0.01      0.01      0.01      1.28         0.01
  C815                        8.73      8.73     12.74      0.17         0.17
  C847900                     0.01      0.01      0.01     51.96         0.01
  OLC02100                    0.01      0.01      0.01      0.18         0.01
  C816                        5.47      5.47      5.50      6.62         4.75
  OLC05920                    0.01      0.01      0.01      0.14         0.01
  C817                        7.62      7.71      7.69      7.73         6.56
  C818                        0.71      0.71      5.53      0.01         0.01
  OLC10200                    0.01      0.01      0.01      0.38         0.01
  OLC06873                    0.01      0.01      0.01      5.33         0.01
  BUR01900                    0.10      0.10      0.17      0.33         0.01
  C823                        0.69      0.69      1.35      0.90         0.01
  BUR01901                    0.01      0.01      0.01      0.37         0.01
  C838700                     0.01      0.01      0.01     22.05         0.01
  C837400                     0.01      0.01      0.01     16.52         0.01
  C834000                     0.01      0.01      0.01     16.08         0.01
  OLC03500                    0.01      0.01      0.01      0.62         0.01
  C832                        0.01      0.16      0.01     28.54         0.01
  1602000                     0.01      0.01      0.01      0.24         0.01
  C833                        0.01      0.13      0.01      0.23         0.01
  1602001                     0.01      0.01      0.01      6.30         0.01
  C834                        0.01      0.01      8.76      2.77         0.01
  C827301                     0.01      0.01      0.01     28.63         0.01
  C827300                     0.01      0.01      0.01     55.44         0.01
  C821400                     0.01      0.01      0.01     35.63         0.01
  C819100                     0.01      0.01      0.01     25.34         0.01
  C815600                     0.01      0.01      0.01     32.87         0.01
  C810000                     0.01      0.01      0.01     24.75         0.01
  SPC01200                    0.01      0.01      0.01      0.53         0.01
  C846a                      18.61     18.61     18.65     13.91         4.68
  C846b                      18.61     18.61     18.65     13.91         4.68
  C826a                       6.51      6.51      8.22      5.55         5.54
  C826b                       6.96      6.97      7.11      7.57         6.93
  C826c                       6.51      6.51      7.60      5.56         5.54
  C826d                       5.53      5.53      7.11      5.52         5.52
  C827a                       5.45      5.45      5.52      0.02         0.01
  C827b                       5.50      5.51      5.54      4.95         0.02
  C827c                       5.47      5.47      5.50      2.50         2.48
  C828a                       3.76      3.76      7.69      0.02         0.01
  C828b                       5.41      5.42      6.75      0.02         0.01
  C828c                       5.44      5.44      5.53      0.02         0.01
  C829a                       5.44      5.47      5.44     26.15         5.43
  C829b                       5.51      5.53      5.51      5.54         5.50
  C829c                       5.48      5.49      5.53      5.46         0.01
  C830a                       0.22      5.48      0.23     21.37         0.22
  C830b                       4.78     10.87      4.80     77.75         4.21
  C830c                       2.96      2.98     11.50      9.55         0.01
  C831a                       0.02      0.02      2.47      0.02         0.01
  C831b                       2.30      2.31      3.23      0.02         0.01
  C831c                       2.98      2.98      3.13      0.02         0.03
  C819a                       0.37      0.37      0.49      0.01         0.01
  C819b                       0.65      0.65      0.74      0.05         0.01
  C819c                       0.53      0.53      0.66      0.01         0.01
  C821a                       0.80      0.80     10.52      7.85         0.01
  C821b                       2.43     10.88      2.56     17.21         0.32
  C866500                     0.01      0.01      0.01      0.88         0.01
  C857100                     0.01      0.01      0.01     12.93         0.01
  C869000                     0.01      0.01      0.01      0.20         0.01
  GDC29700                    0.01      0.01      0.01      1.11         0.01
  C801                        0.43      0.43      0.44      0.09         0.02
  C802                        0.38      0.38      0.43      0.07         0.01
  C803                        0.61      0.61      1.60      0.01         0.01
  C805                        0.25      0.25      0.59      0.01         0.01
  C806                        0.01      0.01      0.01      0.60         0.01
  OLC09900                    0.01      0.01      0.01      0.39         0.01
  OLC06600                    0.01      0.01      0.01      1.00         0.01
  C804a                       0.55      0.55      5.66      0.01         0.01
  C804b                       3.60      3.60      6.99      0.01         0.01
  C804c                       9.61      9.96      9.62     12.21         1.97
  C804d                       4.80      4.81      4.80      7.05         0.63
  C843900                     0.01      0.01      0.01      0.14         0.01
  OLC11440                    0.01      0.01      0.01      0.01         0.01
  

  Analysis begun on:  Wed Jan 02 08:31:51 2019
  Analysis ended on:  Wed Jan 02 08:32:22 2019
  Total elapsed time: 00:00:31