
  EPA STORM WATER MANAGEMENT MODEL - VERSION 5.1 (Build 5.1.012)
  --------------------------------------------------------------

              EXTRAN SAMPLE FILE 
              Sideflow Weir & Detention Pond 
  
  
  *********************************************************
  NOTE: The summary statistics displayed in this report are
  based on results found at every computational time step,  
  not just on results from each reporting time step.
  *********************************************************
  
  ****************
  Analysis Options
  ****************
  Flow Units ............... CMS
  Process Models:
    Rainfall/Runoff ........ NO
    RDII ................... NO
    Snowmelt ............... NO
    Groundwater ............ NO
    Flow Routing ........... YES
    Ponding Allowed ........ NO
    Water Quality .......... NO
  Flow Routing Method ...... DYNWAVE
  Starting Date ............ 06/04/1979 00:00:00
  Ending Date .............. 06/04/1979 12:00:00
  Antecedent Dry Days ...... 0.0
  Report Time Step ......... 00:05:00
  Routing Time Step ........ 300.00 sec
  Variable Time Step ....... NO
  Maximum Trials ........... 8
  Number of Threads ........ 1
  Head Tolerance ........... 0.001500 m
  
  
  **************************        Volume        Volume
  Flow Routing Continuity        hectare-m      10^6 ltr
  **************************     ---------     ---------
  Dry Weather Inflow .......        17.218       172.183
  Wet Weather Inflow .......         0.000         0.000
  Groundwater Inflow .......         0.000         0.000
  RDII Inflow ..............         0.000         0.000
  External Inflow ..........         0.000         0.000
  External Outflow .........        12.766       127.659
  Flooding Loss ............         1.211        12.110
  Evaporation Loss .........         0.000         0.000
  Exfiltration Loss ........         0.000         0.000
  Initial Stored Volume ....         0.108         1.078
  Final Stored Volume ......         3.102        31.021
  Continuity Error (%) .....         1.426
  
  
  *************************
  Highest Continuity Errors
  *************************
  Node 300 (3.86%)
  Node 3 (2.73%)
  Node 4 (1.64%)
  Node 6 (1.49%)
  
  
  ********************************
  Highest Flow Instability Indexes
  ********************************
  Link 130 (32)
  Link 13 (15)
  Link 23 (13)
  Link 131 (3)
  Link 56 (3)
  
  
  *************************
  Routing Time Step Summary
  *************************
  Minimum Time Step           :   300.00 sec
  Average Time Step           :   300.00 sec
  Maximum Time Step           :   300.00 sec
  Percent in Steady State     :     0.00
  Average Iterations per Step :     4.06
  Percent Not Converging      :    25.69
  
  
  ******************
  Node Depth Summary
  ******************
  
  ---------------------------------------------------------------------------------
                                 Average  Maximum  Maximum  Time of Max    Reported
                                   Depth    Depth      HGL   Occurrence   Max Depth
  Node                 Type       Meters   Meters   Meters  days hr:min      Meters
  ---------------------------------------------------------------------------------
  1                    JUNCTION     2.14     2.75    98.75     0  06:15        2.75
  2                    JUNCTION     2.38     3.02    99.02     0  06:15        3.02
  3                    JUNCTION     2.59     3.30    98.10     0  06:10        3.30
  4                    JUNCTION     0.81     0.91    94.81     0  06:40        0.91
  5                    JUNCTION     0.72     0.77    94.77     0  00:30        0.77
  6                    JUNCTION     1.13     1.22    94.42     0  06:45        1.22
  7                    OUTFALL      0.64     0.69    93.53     0  06:45        0.69
  600                  OUTFALL      0.00     0.00    92.20     0  00:00        0.00
  300                  STORAGE      3.41     4.29    98.09     0  06:15        4.29
  
  
  *******************
  Node Inflow Summary
  *******************
  
  -------------------------------------------------------------------------------------------------
                                  Maximum  Maximum                  Lateral       Total        Flow
                                  Lateral    Total  Time of Max      Inflow      Inflow     Balance
                                   Inflow   Inflow   Occurrence      Volume      Volume       Error
  Node                 Type           CMS      CMS  days hr:min    10^6 ltr    10^6 ltr     Percent
  -------------------------------------------------------------------------------------------------
  1                    JUNCTION     1.000    1.000     0  00:05        43.2          43      -0.196
  2                    JUNCTION     2.000    2.000     0  00:05        86.4        86.1       1.838
  3                    JUNCTION     0.000    3.068     0  02:05           0         128       2.806
  4                    JUNCTION     0.000    1.248     0  06:15           0        46.1       1.665
  5                    JUNCTION     1.000    1.000     0  00:05        43.2          43       1.883
  6                    JUNCTION     0.000    3.420     0  06:40           0         130       1.508
  7                    OUTFALL      0.000    1.874     0  06:45           0        72.1       0.000
  600                  OUTFALL      0.000    1.547     0  06:45           0        55.5       0.000
  300                  STORAGE      0.000    2.304     0  01:25           0        65.9       4.012
  
  
  **********************
  Node Surcharge Summary
  **********************
  
  Surcharging occurs when water rises above the top of the highest conduit.
  ---------------------------------------------------------------------
                                               Max. Height   Min. Depth
                                   Hours       Above Crown    Below Rim
  Node                 Type      Surcharged         Meters       Meters
  ---------------------------------------------------------------------
  1                    JUNCTION        8.92          1.551        1.249
  2                    JUNCTION        8.58          1.422        0.778
  3                    JUNCTION        8.33          1.100        0.000
  
  
  *********************
  Node Flooding Summary
  *********************
  
  Flooding refers to all water that overflows a node, whether it ponds or not.
  --------------------------------------------------------------------------
                                                             Total   Maximum
                                 Maximum   Time of Max       Flood    Ponded
                        Hours       Rate    Occurrence      Volume     Depth
  Node                 Flooded       CMS   days hr:min    10^6 ltr    Meters
  --------------------------------------------------------------------------
  3                       5.92     0.614      0  06:25      12.197     0.000
  
  
  **********************
  Storage Volume Summary
  **********************
  
  --------------------------------------------------------------------------------------------------
                         Average     Avg  Evap Exfil       Maximum     Max    Time of Max    Maximum
                          Volume    Pcnt  Pcnt  Pcnt        Volume    Pcnt     Occurrence    Outflow
  Storage Unit           1000 m3    Full  Loss  Loss       1000 m3    Full    days hr:min        CMS
  --------------------------------------------------------------------------------------------------
  300                     17.048      79     0     0        21.469     100       0  06:15      1.174
  
  
  ***********************
  Outfall Loading Summary
  ***********************
  
  -----------------------------------------------------------
                         Flow       Avg       Max       Total
                         Freq      Flow      Flow      Volume
  Outfall Node           Pcnt       CMS       CMS    10^6 ltr
  -----------------------------------------------------------
  7                     98.61     1.700     1.874      72.145
  600                   97.22     1.327     1.547      55.513
  -----------------------------------------------------------
  System                97.92     3.028     3.420     127.659
  
  
  ********************
  Link Flow Summary
  ********************
  
  -----------------------------------------------------------------------------
                                 Maximum  Time of Max   Maximum    Max/    Max/
                                  |Flow|   Occurrence   |Veloc|    Full    Full
  Link                 Type          CMS  days hr:min     m/sec    Flow   Depth
  -----------------------------------------------------------------------------
  13                   CONDUIT     1.025     0  02:05      1.26    0.94    1.00
  23                   CONDUIT     2.043     0  02:05      1.36    0.93    1.00
  34                   CONDUIT     1.248     0  06:15      1.64    2.12    0.93
  46                   CONDUIT     1.247     0  06:55     32.81    0.60    0.67
  56                   CONDUIT     1.059     0  00:35      1.25    0.45    0.59
  67                   CONDUIT     1.874     0  06:45      1.50    0.98    0.60
  131                  CONDUIT     1.174     0  06:15      1.56    4.57    0.91
  130                  CONDUIT     2.304     0  01:25      1.98    0.33    1.00
  WEIR@6-600           WEIR        1.547     0  06:45                      0.27
  
  
  ***************************
  Flow Classification Summary
  ***************************
  
  -------------------------------------------------------------------------------------
                      Adjusted    ---------- Fraction of Time in Flow Class ---------- 
                       /Actual         Up    Down  Sub   Sup   Up    Down  Norm  Inlet 
  Conduit               Length    Dry  Dry   Dry   Crit  Crit  Crit  Crit  Ltd   Ctrl  
  -------------------------------------------------------------------------------------
  13                      1.00   0.00  0.00  0.00  0.96  0.00  0.00  0.04  0.00  0.00
  23                      1.00   0.00  0.00  0.00  1.00  0.00  0.00  0.00  0.04  0.00
  34                      1.00   0.00  0.00  0.00  0.97  0.00  0.00  0.03  0.00  0.00
  46                      1.00   0.00  0.00  0.00  0.99  0.01  0.00  0.00  0.32  0.00
  56                      1.00   0.00  0.00  0.00  0.97  0.00  0.00  0.03  0.95  0.00
  67                      1.00   0.01  0.00  0.00  0.99  0.00  0.00  0.00  0.00  0.00
  131                     1.00   0.00  0.00  0.00  0.97  0.00  0.00  0.03  0.01  0.00
  130                     1.00   0.00  0.00  0.00  0.88  0.00  0.00  0.12  0.01  0.00
  
  
  *************************
  Conduit Surcharge Summary
  *************************
  
  ----------------------------------------------------------------------------
                                                           Hours        Hours 
                         --------- Hours Full --------   Above Full   Capacity
  Conduit                Both Ends  Upstream  Dnstream   Normal Flow   Limited
  ----------------------------------------------------------------------------
  13                          8.92      8.92      9.25      0.01         0.01
  23                          8.58      8.58      9.25      0.01         0.01
  34                          0.01     11.58      0.01     11.67         0.01
  131                         0.01     11.00      0.01     11.17         0.01
  130                         8.33      8.33      9.00      0.01         0.01
  

  Analysis begun on:  Wed Jan 02 04:45:55 2019
  Analysis ended on:  Wed Jan 02 04:45:55 2019
  Total elapsed time: < 1 sec