
  EPA STORM WATER MANAGEMENT MODEL - VERSION 5.1 (Build 5.1.012)
  --------------------------------------------------------------

  Example of using control rules with a pump. 
  
  
  *********************************************************
  NOTE: The summary statistics displayed in this report are
  based on results found at every computational time step,  
  not just on results from each reporting time step.
  *********************************************************
  
  ****************
  Analysis Options
  ****************
  Flow Units ............... CFS
  Process Models:
    Rainfall/Runoff ........ NO
    RDII ................... NO
    Snowmelt ............... NO
    Groundwater ............ NO
    Flow Routing ........... YES
    Ponding Allowed ........ NO
    Water Quality .......... NO
  Flow Routing Method ...... DYNWAVE
  Starting Date ............ 01/01/2001 00:00:00
  Ending Date .............. 01/02/2001 00:00:00
  Antecedent Dry Days ...... 0.0
  Report Time Step ......... 00:05:00
  Routing Time Step ........ 5.00 sec
  Variable Time Step ....... YES
  Maximum Trials ........... 8
  Number of Threads ........ 1
  Head Tolerance ........... 0.001000 ft
  
  
  **************************        Volume        Volume
  Flow Routing Continuity        acre-feet      10^6 gal
  **************************     ---------     ---------
  Dry Weather Inflow .......         0.000         0.000
  Wet Weather Inflow .......         0.000         0.000
  Groundwater Inflow .......         0.000         0.000
  RDII Inflow ..............         0.000         0.000
  External Inflow ..........         1.580         0.515
  External Outflow .........         1.561         0.509
  Flooding Loss ............         0.000         0.000
  Evaporation Loss .........         0.000         0.000
  Exfiltration Loss ........         0.000         0.000
  Initial Stored Volume ....         0.000         0.000
  Final Stored Volume ......         0.010         0.003
  Continuity Error (%) .....         0.563
  
  
  ***************************
  Time-Step Critical Elements
  ***************************
  None
  
  
  ********************************
  Highest Flow Instability Indexes
  ********************************
  Link KRO1014-KRO1013 (4)
  Link KRO1013-KRO1009 (2)
  Link PUMP@SU1-KRO1014 (2)
  Link KRO1010-KRO2001 (1)
  
  
  *************************
  Routing Time Step Summary
  *************************
  Minimum Time Step           :     5.00 sec
  Average Time Step           :     5.00 sec
  Maximum Time Step           :     5.00 sec
  Percent in Steady State     :     0.00
  Average Iterations per Step :     2.12
  Percent Not Converging      :     0.00
  
  
  ******************
  Node Depth Summary
  ******************
  
  ---------------------------------------------------------------------------------
                                 Average  Maximum  Maximum  Time of Max    Reported
                                   Depth    Depth      HGL   Occurrence   Max Depth
  Node                 Type         Feet     Feet     Feet  days hr:min        Feet
  ---------------------------------------------------------------------------------
  KRO3001              JUNCTION     0.12     0.15   556.34     0  09:00        0.15
  KRO6015              JUNCTION     0.05     0.06   586.04     0  09:00        0.06
  KRO6016              JUNCTION     0.10     0.13   584.27     0  09:00        0.12
  KRO6017              JUNCTION     0.11     0.13   582.14     0  09:00        0.13
  KRO1002              JUNCTION     0.07     0.08   594.97     0  09:00        0.08
  KRO1003              JUNCTION     0.10     0.12   594.85     0  09:00        0.12
  KRO1004              JUNCTION     0.05     0.06   588.15     0  09:00        0.06
  KRO1005              JUNCTION     0.11     0.13   579.53     0  09:00        0.13
  KRO1006              JUNCTION     0.04     0.06   602.54     0  09:00        0.06
  KRO1007              JUNCTION     0.07     0.09   596.85     0  09:00        0.09
  KRO1008              JUNCTION     0.11     0.14   593.72     0  09:00        0.14
  KRO1009              JUNCTION     0.22     0.29   590.85     0  09:05        0.28
  KRO1010              JUNCTION     0.19     0.25   585.07     0  09:06        0.25
  KRO1012              JUNCTION     0.05     0.06   584.31     0  09:00        0.06
  KRO1013              JUNCTION     0.27     0.38   591.96     0  09:05        0.38
  KRO1014              JUNCTION     0.37     0.83   593.24     0  09:03        0.81
  KRO1015              JUNCTION     0.04     0.04   586.73     0  09:00        0.04
  KRO2001              JUNCTION     0.33     0.43   576.72     0  09:03        0.43
  KRO4004              JUNCTION     0.05     0.06   587.45     0  09:00        0.06
  KRO4008              JUNCTION     0.05     0.07   583.55     0  09:00        0.07
  KRO4009              JUNCTION     0.08     0.10   581.78     0  09:00        0.10
  KRO4010              JUNCTION     0.10     0.13   580.01     0  09:00        0.13
  KRO4011              JUNCTION     0.09     0.11   578.54     0  09:00        0.11
  KRO4012              JUNCTION     0.10     0.12   564.83     0  09:00        0.12
  KRO4013              JUNCTION     0.04     0.05   567.93     0  09:00        0.05
  KRO4014              JUNCTION     0.05     0.07   573.25     0  09:00        0.07
  KRO4015              JUNCTION     0.08     0.10   563.81     0  09:00        0.10
  KRO4016              JUNCTION     0.07     0.09   563.33     0  09:00        0.09
  KRO4017              JUNCTION     0.11     0.13   558.49     0  09:00        0.13
  KRO4018              JUNCTION     0.12     0.14   556.16     0  09:00        0.14
  KRO4019              JUNCTION     0.12     0.14   552.56     0  09:00        0.14
  KRO2005              OUTFALL      0.33     0.43   574.75     0  09:03        0.43
  PSO                  OUTFALL      0.00     0.00   548.36     0  00:00        0.00
  SU1                  STORAGE      1.30     2.03   546.77     0  08:22        2.02
  
  
  *******************
  Node Inflow Summary
  *******************
  
  -------------------------------------------------------------------------------------------------
                                  Maximum  Maximum                  Lateral       Total        Flow
                                  Lateral    Total  Time of Max      Inflow      Inflow     Balance
                                   Inflow   Inflow   Occurrence      Volume      Volume       Error
  Node                 Type           CFS      CFS  days hr:min    10^6 gal    10^6 gal     Percent
  -------------------------------------------------------------------------------------------------
  KRO3001              JUNCTION      0.04     0.32     0  09:00      0.0172       0.137       0.042
  KRO6015              JUNCTION      0.04     0.04     0  09:00      0.0172      0.0172       0.040
  KRO6016              JUNCTION      0.04     0.12     0  09:00      0.0172      0.0515       0.118
  KRO6017              JUNCTION      0.04     0.16     0  09:00      0.0172      0.0686       0.078
  KRO1002              JUNCTION      0.04     0.04     0  09:00      0.0172      0.0172       0.044
  KRO1003              JUNCTION      0.04     0.08     0  09:00      0.0172      0.0343       0.088
  KRO1004              JUNCTION      0.04     0.04     0  09:00      0.0172      0.0172       0.064
  KRO1005              JUNCTION      0.04     0.20     0  09:00      0.0172      0.0857       0.052
  KRO1006              JUNCTION      0.04     0.04     0  09:00      0.0172      0.0172       0.047
  KRO1007              JUNCTION      0.04     0.08     0  09:00      0.0172      0.0343       0.075
  KRO1008              JUNCTION      0.04     0.20     0  09:00      0.0172      0.0857       0.085
  KRO1009              JUNCTION      0.04     1.04     0  09:05      0.0172        0.39       0.052
  KRO1010              JUNCTION      0.04     1.05     0  09:05      0.0172       0.406       0.027
  KRO1012              JUNCTION      0.04     0.04     0  09:00      0.0172      0.0172       0.049
  KRO1013              JUNCTION      0.04     1.15     0  09:03      0.0172       0.289       0.935
  KRO1014              JUNCTION      0.00    10.00     0  00:18           0       0.273       0.160
  KRO1015              JUNCTION      0.04     0.04     0  09:00      0.0172      0.0172       0.033
  KRO2001              JUNCTION      0.04     1.27     0  09:02      0.0172       0.509       0.100
  KRO4004              JUNCTION      0.04     0.04     0  09:00      0.0172      0.0172       0.046
  KRO4008              JUNCTION      0.04     0.08     0  09:00      0.0172      0.0343       0.038
  KRO4009              JUNCTION      0.04     0.08     0  09:00      0.0172      0.0343       0.090
  KRO4010              JUNCTION      0.04     0.12     0  09:00      0.0172      0.0514       0.086
  KRO4011              JUNCTION      0.04     0.24     0  09:00      0.0172       0.103       0.043
  KRO4012              JUNCTION      0.04     0.28     0  09:00      0.0172        0.12       0.045
  KRO4013              JUNCTION      0.04     0.04     0  09:00      0.0172      0.0172       0.043
  KRO4014              JUNCTION      0.04     0.08     0  09:00      0.0172      0.0343       0.045
  KRO4015              JUNCTION      0.04     0.12     0  09:00      0.0172      0.0515       0.040
  KRO4016              JUNCTION      0.00     0.12     0  09:00           0      0.0514       0.033
  KRO4017              JUNCTION      0.04     0.20     0  09:00      0.0172      0.0857       0.059
  KRO4018              JUNCTION      0.04     0.24     0  09:00      0.0172       0.103       0.042
  KRO4019              JUNCTION      0.04     0.28     0  09:00      0.0172        0.12       0.044
  KRO2005              OUTFALL       0.00     1.24     0  09:03           0       0.509       0.000
  PSO                  OUTFALL       0.00     0.00     0  00:00           0           0       0.000 gal
  SU1                  STORAGE       0.04     0.63     0  09:00      0.0172       0.274       0.000
  
  
  **********************
  Node Surcharge Summary
  **********************
  
  No nodes were surcharged.
  
  
  *********************
  Node Flooding Summary
  *********************
  
  No nodes were flooded.
  
  
  **********************
  Storage Volume Summary
  **********************
  
  --------------------------------------------------------------------------------------------------
                         Average     Avg  Evap Exfil       Maximum     Max    Time of Max    Maximum
                          Volume    Pcnt  Pcnt  Pcnt        Volume    Pcnt     Occurrence    Outflow
  Storage Unit          1000 ft3    Full  Loss  Loss      1000 ft3    Full    days hr:min        CFS
  --------------------------------------------------------------------------------------------------
  SU1                      0.130       8     0     0         0.203      12       0  08:22      10.00
  
  
  ***********************
  Outfall Loading Summary
  ***********************
  
  -----------------------------------------------------------
                         Flow       Avg       Max       Total
                         Freq      Flow      Flow      Volume
  Outfall Node           Pcnt       CFS       CFS    10^6 gal
  -----------------------------------------------------------
  KRO2005               99.95      0.79      1.24       0.509
  PSO                    0.00      0.00      0.00       0.000
  -----------------------------------------------------------
  System                49.97      0.79      1.24       0.509
  
  
  ********************
  Link Flow Summary
  ********************
  
  -----------------------------------------------------------------------------
                                 Maximum  Time of Max   Maximum    Max/    Max/
                                  |Flow|   Occurrence   |Veloc|    Full    Full
  Link                 Type          CFS  days hr:min    ft/sec    Flow   Depth
  -----------------------------------------------------------------------------
  KRO3001-KRO3002      CONDUIT      0.32     0  09:00      4.43    0.05    0.15
  SU1-PSO              CONDUIT      0.00     0  00:00      0.00    0.00    0.00
  KRO1002-KRO1003      CONDUIT      0.04     0  09:00      0.96    0.01    0.10
  KRO1003-KRO1008      CONDUIT      0.08     0  09:00      1.37    0.03    0.13
  KRO1004-KRO6016      CONDUIT      0.04     0  09:00      1.19    0.01    0.09
  KRO1005-KRO2001      CONDUIT      0.20     0  09:00      1.48    0.04    0.28
  KRO1006-KRO1007      CONDUIT      0.04     0  09:00      1.58    0.01    0.07
  KRO1007-KRO1008      CONDUIT      0.08     0  09:00      1.63    0.02    0.11
  KRO1008-KRO1009      CONDUIT      0.20     0  09:00      2.22    0.04    0.21
  KRO1009-KRO1010      CONDUIT      1.01     0  09:05      5.96    0.17    0.27
  KRO1010-KRO2001      CONDUIT      1.04     0  09:06      4.44    0.14    0.34
  KRO1012-KRO4009      CONDUIT      0.04     0  09:00      1.29    0.01    0.08
  KRO1013-KRO1009      CONDUIT      0.81     0  09:05      3.55    0.29    0.33
  KRO1014-KRO1013      CONDUIT      1.11     0  09:03      3.18    0.77    0.57
  KRO1015-KRO4014      CONDUIT      0.04     0  09:00      3.02    0.00    0.05
  KRO2001-KRO2005      CONDUIT      1.24     0  09:03      3.81    0.39    0.43
  KRO4004-KRO4008      CONDUIT      0.04     0  09:00      1.95    0.01    0.06
  KRO4008-KRO4011      CONDUIT      0.08     0  09:00      2.35    0.01    0.09
  KRO4009-KRO4010      CONDUIT      0.08     0  09:00      1.57    0.02    0.12
  KRO4010-KRO4011      CONDUIT      0.12     0  09:00      2.26    0.03    0.12
  KRO4011-KRO4012      CONDUIT      0.24     0  09:00      4.71    0.03    0.12
  KRO4012-KRO3001      CONDUIT      0.28     0  09:00      5.13    0.03    0.12
  KRO4013-KRO4017      CONDUIT      0.04     0  09:00      1.71    0.00    0.09
  KRO4014-KRO4015      CONDUIT      0.08     0  09:00      2.58    0.01    0.08
  KRO4015-KRO4016      CONDUIT      0.12     0  09:00      3.21    0.02    0.09
  KRO4016-KRO4017      CONDUIT      0.12     0  09:00      2.56    0.02    0.11
  KRO4017-KRO4018      CONDUIT      0.20     0  09:00      3.05    0.04    0.14
  KRO4018-KRO4019      CONDUIT      0.24     0  09:00      3.42    0.04    0.14
  KRO4019-KRO3002      CONDUIT      0.28     0  09:00      4.00    0.04    0.14
  KRO6015-KRO6016      CONDUIT      0.04     0  09:00      1.45    0.01    0.09
  KRO6016-KRO6017      CONDUIT      0.12     0  09:00      2.02    0.03    0.13
  KRO6017-KRO1005      CONDUIT      0.16     0  09:00      2.61    0.04    0.13
  PUMP@SU1-KRO1014     PUMP        10.00     0  00:18              1.00
  
  
  ***************************
  Flow Classification Summary
  ***************************
  
  -------------------------------------------------------------------------------------
                      Adjusted    ---------- Fraction of Time in Flow Class ---------- 
                       /Actual         Up    Down  Sub   Sup   Up    Down  Norm  Inlet 
  Conduit               Length    Dry  Dry   Dry   Crit  Crit  Crit  Crit  Ltd   Ctrl  
  -------------------------------------------------------------------------------------
  KRO3001-KRO3002         1.00   0.00  0.00  0.00  0.00  0.00  0.00  1.00  0.00  0.00
  SU1-PSO                 1.09   1.00  0.00  0.00  0.00  0.00  0.00  0.00  0.00  0.00
  KRO1002-KRO1003         1.68   0.00  0.00  0.00  1.00  0.00  0.00  0.00  1.00  0.00
  KRO1003-KRO1008         1.00   0.00  0.00  0.00  1.00  0.00  0.00  0.00  1.00  0.00
  KRO1004-KRO6016         1.00   0.00  0.00  0.00  1.00  0.00  0.00  0.00  1.00  0.00
  KRO1005-KRO2001         1.00   0.00  0.00  0.00  1.00  0.00  0.00  0.00  1.00  0.00
  KRO1006-KRO1007         1.00   0.00  0.00  0.00  0.00  1.00  0.00  0.00  1.00  0.00
  KRO1007-KRO1008         1.00   0.00  0.00  0.00  0.25  0.75  0.00  0.00  1.00  0.00
  KRO1008-KRO1009         1.00   0.00  0.00  0.00  0.93  0.07  0.00  0.00  1.00  0.00
  KRO1009-KRO1010         1.00   0.00  0.00  0.00  0.00  1.00  0.00  0.00  0.00  0.00
  KRO1010-KRO2001         1.00   0.00  0.00  0.00  0.00  1.00  0.00  0.00  1.00  0.00
  KRO1012-KRO4009         1.00   0.00  0.00  0.00  1.00  0.00  0.00  0.00  1.00  0.00
  KRO1013-KRO1009         1.00   0.00  0.00  0.00  0.05  0.95  0.00  0.00  0.05  0.00
  KRO1014-KRO1013         1.00   0.00  0.01  0.00  0.99  0.00  0.00  0.00  0.36  0.00
  KRO1015-KRO4014         1.00   0.00  0.00  0.00  0.00  1.00  0.00  0.00  1.00  0.00
  KRO2001-KRO2005         1.00   0.00  0.00  0.00  0.00  1.00  0.00  0.00  0.53  0.00
  KRO4004-KRO4008         1.00   0.00  0.00  0.00  0.00  1.00  0.00  0.00  1.00  0.00
  KRO4008-KRO4011         1.09   0.00  0.00  0.00  0.00  1.00  0.00  0.00  1.00  0.00
  KRO4009-KRO4010         1.00   0.00  0.00  0.00  1.00  0.00  0.00  0.00  1.00  0.00
  KRO4010-KRO4011         1.00   0.00  0.00  0.00  0.00  1.00  0.00  0.00  0.00  0.00
  KRO4011-KRO4012         1.00   0.00  0.00  0.00  0.00  1.00  0.00  0.00  1.00  0.00
  KRO4012-KRO3001         1.00   0.00  0.00  0.00  0.00  0.00  0.00  1.00  0.00  0.00
  KRO4013-KRO4017         1.00   0.00  0.00  0.00  1.00  0.00  0.00  0.00  1.00  0.00
  KRO4014-KRO4015         1.00   0.00  0.00  0.00  0.00  1.00  0.00  0.00  1.00  0.00
  KRO4015-KRO4016         3.90   0.00  0.00  0.00  0.00  1.00  0.00  0.00  0.00  0.00
  KRO4016-KRO4017         1.00   0.00  0.00  0.00  0.00  1.00  0.00  0.00  1.00  0.00
  KRO4017-KRO4018         1.00   0.00  0.00  0.00  0.00  1.00  0.00  0.00  1.00  0.00
  KRO4018-KRO4019         1.00   0.00  0.00  0.00  0.00  1.00  0.00  0.00  0.71  0.00
  KRO4019-KRO3002         1.00   0.00  0.00  0.00  0.00  0.00  0.00  1.00  0.00  0.00
  KRO6015-KRO6016         1.00   0.00  0.00  0.00  1.00  0.00  0.00  0.00  1.00  0.00
  KRO6016-KRO6017         1.00   0.00  0.00  0.00  0.00  1.00  0.00  0.00  1.00  0.00
  KRO6017-KRO1005         1.00   0.00  0.00  0.00  0.00  1.00  0.00  0.00  0.00  0.00
  
  
  *************************
  Conduit Surcharge Summary
  *************************
  
  No conduits were surcharged.
  
  
  ***************
  Pumping Summary
  ***************
  
  ---------------------------------------------------------------------------------------------------------
                                                  Min       Avg       Max     Total     Power    % Time Off
                        Percent   Number of      Flow      Flow      Flow    Volume     Usage    Pump Curve
  Pump                 Utilized   Start-Ups       CFS       CFS       CFS  10^6 gal     Kw-hr    Low   High
  ---------------------------------------------------------------------------------------------------------
  PUMP@SU1-KRO1014         4.22         243      0.00     10.00     10.00     0.273     40.14    0.0  100.0
  

  Analysis begun on:  Wed Jan 02 04:45:56 2019
  Analysis ended on:  Wed Jan 02 04:45:56 2019
  Total elapsed time: < 1 sec