
  EPA STORM WATER MANAGEMENT MODEL - VERSION 5.1 (Build 5.1.012)
  --------------------------------------------------------------

  Illustration of how custom conduit shapes are used in SWMM5. 
  
  
  *************
  Element Count
  *************
  Number of rain gages ...... 0
  Number of subcatchments ... 0
  Number of nodes ........... 2
  Number of links ........... 1
  Number of pollutants ...... 0
  Number of land uses ....... 0
  
  
  ************
  Node Summary
  ************
                                           Invert      Max.    Ponded    External
  Name                 Type                 Elev.     Depth      Area    Inflow  
  -------------------------------------------------------------------------------
  U/S_Culvert1         JUNCTION              0.00      6.00       0.0    Yes
  D/S_Culvert1         OUTFALL              -0.16      3.00       0.0
  
  
  ************
  Link Summary
  ************
  Name             From Node        To Node          Type            Length    %Slope Roughness
  ---------------------------------------------------------------------------------------------
  Culvert1         U/S_Culvert1     D/S_Culvert1     CONDUIT          100.0    0.1600    0.0150
  
  
  *********************
  Cross Section Summary
  *********************
                                        Full     Full     Hyd.     Max.   No. of     Full
  Conduit          Shape               Depth     Area     Rad.    Width  Barrels     Flow
  ---------------------------------------------------------------------------------------
  Culvert1         Figure5-7_ShapeCurve     3.00     6.96     0.73     3.00        1    22.35
  
  
  *************
  Shape Summary
  *************

  Shape Figure5-7_ShapeCurve
  Area:  
              0.0022     0.0086     0.0194     0.0345     0.0526 
              0.0724     0.0939     0.1171     0.1413     0.1661 
              0.1912     0.2169     0.2427     0.2685     0.2943 
              0.3201     0.3459     0.3716     0.3972     0.4228 
              0.4482     0.4736     0.4988     0.5239     0.5487 
              0.5734     0.5977     0.6219     0.6457     0.6691 
              0.6923     0.7150     0.7374     0.7592     0.7806 
              0.8015     0.8218     0.8414     0.8604     0.8788 
              0.8964     0.9132     0.9291     0.9442     0.9581 
              0.9706     0.9816     0.9912     0.9978     1.0000 
  Hrad:  
              0.0400     0.0800     0.1201     0.1601     0.2194 
              0.2744     0.3260     0.3750     0.4337     0.4890 
              0.5413     0.5909     0.6394     0.6848     0.7273 
              0.7672     0.8046     0.8398     0.8729     0.9041 
              0.9333     0.9607     0.9864     1.0107     1.0329 
              1.0536     1.0729     1.0909     1.1069     1.1216 
              1.1351     1.1475     1.1576     1.1664     1.1741 
              1.1808     1.1848     1.1877     1.1896     1.1905 
              1.1883     1.1850     1.1809     1.1759     1.1618 
              1.1468     1.1309     1.1141     1.0560     1.0000 
  Width: 
              0.1668     0.3335     0.5003     0.6670     0.7328 
              0.7985     0.8643     0.9300     0.9475     0.9650 
              0.9825     1.0000     0.9992     0.9985     0.9978 
              0.9970     0.9948     0.9925     0.9902     0.9880 
              0.9828     0.9775     0.9722     0.9670     0.9572 
              0.9475     0.9377     0.9280     0.9145     0.9010 
              0.8875     0.8740     0.8550     0.8360     0.8170 
              0.7980     0.7727     0.7475     0.7222     0.6970 
              0.6645     0.6320     0.5995     0.5670     0.5107 
              0.4545     0.3982     0.3420     0.1710     0.0000 
  
  
  
  *********************************************************
  NOTE: The summary statistics displayed in this report are
  based on results found at every computational time step,  
  not just on results from each reporting time step.
  *********************************************************
  
  ****************
  Analysis Options
  ****************
  Flow Units ............... CFS
  Process Models:
    Rainfall/Runoff ........ NO
    RDII ................... NO
    Snowmelt ............... NO
    Groundwater ............ NO
    Flow Routing ........... YES
    Ponding Allowed ........ NO
    Water Quality .......... NO
  Flow Routing Method ...... DYNWAVE
  Starting Date ............ 07/30/2018 00:00:00
  Ending Date .............. 07/30/2018 02:00:00
  Antecedent Dry Days ...... 0.0
  Report Time Step ......... 00:00:01
  Routing Time Step ........ 1.00 sec
  Variable Time Step ....... NO
  Maximum Trials ........... 8
  Number of Threads ........ 1
  Head Tolerance ........... 0.001500 ft
  
  
  **************************        Volume        Volume
  Flow Routing Continuity        acre-feet      10^6 gal
  **************************     ---------     ---------
  Dry Weather Inflow .......         0.000         0.000
  Wet Weather Inflow .......         0.000         0.000
  Groundwater Inflow .......         0.000         0.000
  RDII Inflow ..............         0.000         0.000
  External Inflow ..........         0.632         0.206
  External Outflow .........         0.632         0.206
  Flooding Loss ............         0.000         0.000
  Evaporation Loss .........         0.000         0.000
  Exfiltration Loss ........         0.000         0.000
  Initial Stored Volume ....         0.000         0.000
  Final Stored Volume ......         0.000         0.000
  Continuity Error (%) .....         0.000
  
  
  ********************************
  Highest Flow Instability Indexes
  ********************************
  All links are stable.
  
  
  *************************
  Routing Time Step Summary
  *************************
  Minimum Time Step           :     1.00 sec
  Average Time Step           :     1.00 sec
  Maximum Time Step           :     1.00 sec
  Percent in Steady State     :     0.00
  Average Iterations per Step :     2.00
  Percent Not Converging      :     0.00
  
  
  ******************
  Node Depth Summary
  ******************
  
  ---------------------------------------------------------------------------------
                                 Average  Maximum  Maximum  Time of Max    Reported
                                   Depth    Depth      HGL   Occurrence   Max Depth
  Node                 Type         Feet     Feet     Feet  days hr:min        Feet
  ---------------------------------------------------------------------------------
  U/S_Culvert1         JUNCTION     0.55     1.30     1.30     0  00:24        1.30
  D/S_Culvert1         OUTFALL      0.54     1.30     1.14     0  00:24        1.30
  
  
  *******************
  Node Inflow Summary
  *******************
  
  -------------------------------------------------------------------------------------------------
                                  Maximum  Maximum                  Lateral       Total        Flow
                                  Lateral    Total  Time of Max      Inflow      Inflow     Balance
                                   Inflow   Inflow   Occurrence      Volume      Volume       Error
  Node                 Type           CFS      CFS  days hr:min    10^6 gal    10^6 gal     Percent
  -------------------------------------------------------------------------------------------------
  U/S_Culvert1         JUNCTION     10.00    10.00     0  00:18       0.206       0.206       0.000
  D/S_Culvert1         OUTFALL       0.00    10.00     0  00:24           0       0.206       0.000
  
  
  **********************
  Node Surcharge Summary
  **********************
  
  No nodes were surcharged.
  
  
  *********************
  Node Flooding Summary
  *********************
  
  No nodes were flooded.
  
  
  ***********************
  Outfall Loading Summary
  ***********************
  
  -----------------------------------------------------------
                         Flow       Avg       Max       Total
                         Freq      Flow      Flow      Volume
  Outfall Node           Pcnt       CFS       CFS    10^6 gal
  -----------------------------------------------------------
  D/S_Culvert1          59.04      6.48     10.00       0.206
  -----------------------------------------------------------
  System                59.04      6.48     10.00       0.206
  
  
  ********************
  Link Flow Summary
  ********************
  
  -----------------------------------------------------------------------------
                                 Maximum  Time of Max   Maximum    Max/    Max/
                                  |Flow|   Occurrence   |Veloc|    Full    Full
  Link                 Type          CFS  days hr:min    ft/sec    Flow   Depth
  -----------------------------------------------------------------------------
  Culvert1             CONDUIT     10.00     0  00:24      3.10    0.45    0.43
  
  
  ***************************
  Flow Classification Summary
  ***************************
  
  -------------------------------------------------------------------------------------
                      Adjusted    ---------- Fraction of Time in Flow Class ---------- 
                       /Actual         Up    Down  Sub   Sup   Up    Down  Norm  Inlet 
  Conduit               Length    Dry  Dry   Dry   Crit  Crit  Crit  Crit  Ltd   Ctrl  
  -------------------------------------------------------------------------------------
  Culvert1                1.00   0.00  0.00  0.00  1.00  0.00  0.00  0.00  0.01  0.00
  
  
  *************************
  Conduit Surcharge Summary
  *************************
  
  No conduits were surcharged.
  

  Analysis begun on:  Wed Jan 02 04:45:57 2019
  Analysis ended on:  Wed Jan 02 04:45:57 2019
  Total elapsed time: < 1 sec