
  EPA STORM WATER MANAGEMENT MODEL - VERSION 5.1 (Build 5.1.012)
  --------------------------------------------------------------

  WARNING 01: wet weather time step reduced to recording interval for Rain Gage RG_SEWER_RAINFALL
  WARNING 02: maximum depth increased for Node 52
  WARNING 02: maximum depth increased for Node 903
  WARNING 02: maximum depth increased for Node 919
  WARNING 02: maximum depth increased for Node 920
  WARNING 02: maximum depth increased for Node 921
  WARNING 02: maximum depth increased for Node 922
  WARNING 02: maximum depth increased for Node 925
  WARNING 02: maximum depth increased for Node 926
  
  *********************************************************
  NOTE: The summary statistics displayed in this report are
  based on results found at every computational time step,  
  not just on results from each reporting time step.
  *********************************************************
  
  ****************
  Analysis Options
  ****************
  Flow Units ............... CFS
  Process Models:
    Rainfall/Runoff ........ NO
    RDII ................... NO
    Snowmelt ............... NO
    Groundwater ............ NO
    Flow Routing ........... YES
    Ponding Allowed ........ NO
    Water Quality .......... NO
  Infiltration Method ...... HORTON
  Flow Routing Method ...... DYNWAVE
  Starting Date ............ 01/01/2002 00:00:00
  Ending Date .............. 01/01/2002 23:00:00
  Antecedent Dry Days ...... 5.0
  Report Time Step ......... 00:15:00
  Wet Time Step ............ 00:15:00
  Dry Time Step ............ 23:00:00
  Routing Time Step ........ 10.00 sec
  Variable Time Step ....... YES
  Maximum Trials ........... 4
  Number of Threads ........ 1
  Head Tolerance ........... 0.005000 ft
  
  
  **************************        Volume         Depth
  Runoff Quantity Continuity     acre-feet        inches
  **************************     ---------       -------
  Total Precipitation ......         0.000         0.000
  Evaporation Loss .........         0.000         0.000
  Infiltration Loss ........         0.000         0.000
  Surface Runoff ...........         0.000         0.000
  Final Storage ............         0.000         0.000
  Continuity Error (%) .....         0.000
  
  
  **************************        Volume        Volume
  Flow Routing Continuity        acre-feet      10^6 gal
  **************************     ---------     ---------
  Dry Weather Inflow .......         5.931         1.933
  Wet Weather Inflow .......         0.000         0.000
  Groundwater Inflow .......         0.000         0.000
  RDII Inflow ..............         0.000         0.000
  External Inflow ..........         0.000         0.000
  External Outflow .........         3.121         1.017
  Flooding Loss ............         2.874         0.936
  Evaporation Loss .........         0.000         0.000
  Exfiltration Loss ........         0.000         0.000
  Initial Stored Volume ....         0.017         0.006
  Final Stored Volume ......         0.030         0.010
  Continuity Error (%) .....        -1.284
  
  
  *************************
  Highest Continuity Errors
  *************************
  Node JC48 (-4.82%)
  
  
  ***************************
  Time-Step Critical Elements
  ***************************
  Link 937 (5.32%)
  Link 939 (3.42%)
  
  
  ********************************
  Highest Flow Instability Indexes
  ********************************
  Link 940 (42)
  Link P51 (42)
  Link FM51 (33)
  Link FM51A (28)
  Link FM51B (27)
  
  
  *************************
  Routing Time Step Summary
  *************************
  Minimum Time Step           :     1.03 sec
  Average Time Step           :     9.93 sec
  Maximum Time Step           :    10.00 sec
  Percent in Steady State     :     0.00
  Average Iterations per Step :     3.44
  Percent Not Converging      :    70.19
  
  
  ******************
  Node Depth Summary
  ******************
  
  ---------------------------------------------------------------------------------
                                 Average  Maximum  Maximum  Time of Max    Reported
                                   Depth    Depth      HGL   Occurrence   Max Depth
  Node                 Type         Feet     Feet     Feet  days hr:min        Feet
  ---------------------------------------------------------------------------------
  44                   JUNCTION     0.27     0.59   276.39     0  14:00        0.59
  52                   JUNCTION     0.15     0.41   292.61     0  13:14        0.38
  54                   JUNCTION     0.84     2.40   292.90     0  13:11        2.25
  901                  JUNCTION     0.37     0.88   278.68     0  14:00        0.88
  903                  JUNCTION     0.17     0.38   281.58     0  13:42        0.38
  917                  JUNCTION     0.13     0.27   283.47     0  13:30        0.27
  918                  JUNCTION     0.25     0.53   280.33     0  13:10        0.51
  919                  JUNCTION     0.31     0.65   274.85     0  14:00        0.65
  920                  JUNCTION     0.33     1.20   274.00     0  13:08        1.20
  921                  JUNCTION     0.34     1.20   296.80     0  13:13        1.20
  922                  JUNCTION     0.66     2.58   296.58     0  13:37        2.58
  923                  JUNCTION     0.74     2.20   295.00     0  02:06        2.20
  924                  JUNCTION     0.64     2.20   294.00     0  13:11        2.01
  925                  JUNCTION     0.22     0.48   297.88     0  13:09        0.46
  926                  JUNCTION     0.24     0.62   299.42     0  14:00        0.62
  927                  JUNCTION     0.14     0.30   301.50     0  13:03        0.30
  934                  JUNCTION     4.99     5.00   280.00     0  00:01        5.00
  937                  JUNCTION     4.99     5.00   280.00     0  00:01        5.00
  938                  JUNCTION     0.25     0.61   302.61     0  13:15        0.61
  939                  JUNCTION     0.18     0.38   302.38     0  13:13        0.38
  940                  JUNCTION     0.24     0.52   300.52     0  13:37        0.52
  JC48                 JUNCTION    32.88   146.32   420.32     0  18:05       62.38
  OUTLET94             OUTFALL      0.46     0.75   289.75     0  13:12        0.74
  WW48                 STORAGE      0.30     6.00   272.00     0  00:00        5.62
  
  
  *******************
  Node Inflow Summary
  *******************
  
  -------------------------------------------------------------------------------------------------
                                  Maximum  Maximum                  Lateral       Total        Flow
                                  Lateral    Total  Time of Max      Inflow      Inflow     Balance
                                   Inflow   Inflow   Occurrence      Volume      Volume       Error
  Node                 Type           CFS      CFS  days hr:min    10^6 gal    10^6 gal     Percent
  -------------------------------------------------------------------------------------------------
  44                   JUNCTION      0.50     2.00     0  14:00      0.0976       0.388       0.058
  52                   JUNCTION      0.00     8.10     0  18:04           0       0.584       0.733
  54                   JUNCTION      0.50     3.91     0  13:10      0.0976       0.945       0.034
  901                  JUNCTION      0.50     1.54     0  13:12      0.0976       0.291       0.079
  903                  JUNCTION      0.00     0.50     0  13:45           0      0.0975       0.131
  917                  JUNCTION      0.50     0.50     0  13:00      0.0976      0.0976       0.076
  918                  JUNCTION      0.50     1.00     0  13:36      0.0976       0.195       0.920
  919                  JUNCTION      0.50     2.50     0  14:00      0.0976       0.486       0.041
  920                  JUNCTION      0.50     3.00     0  14:00      0.0976       0.583       0.076
  921                  JUNCTION      0.50     2.04     0  13:10      0.0976        0.39       0.072
  922                  JUNCTION      0.50     2.93     0  13:35      0.0976       0.703       0.053
  923                  JUNCTION      0.50     3.43     0  13:37      0.0976         0.8       0.090
  924                  JUNCTION      0.50     3.41     0  13:11      0.0976       0.848       0.140
  925                  JUNCTION      0.50     1.50     0  14:00      0.0976       0.293       0.163
  926                  JUNCTION      0.50     1.00     0  13:03      0.0976       0.195       0.046
  927                  JUNCTION      0.50     0.50     0  13:00      0.0976      0.0976       0.174
  934                  JUNCTION      0.80     2.43     0  13:15       0.156        0.46       0.039
  937                  JUNCTION      0.40     1.88     0  13:15      0.0781       0.353       0.063
  938                  JUNCTION      0.80     0.80     0  13:00       0.156       0.156       0.235
  939                  JUNCTION      0.40     0.40     0  13:00      0.0781      0.0781       0.294
  940                  JUNCTION      0.00     1.27     0  13:19           0       0.234       0.952
  JC48                 JUNCTION      0.00     2.00     0  00:00           0       0.534      -4.595
  OUTLET94             OUTFALL       0.50     3.53     0  13:12      0.0976        1.02       0.000
  WW48                 STORAGE       0.00     4.47     0  18:17           0       0.528      -0.764
  
  
  **********************
  Node Surcharge Summary
  **********************
  
  Surcharging occurs when water rises above the top of the highest conduit.
  ---------------------------------------------------------------------
                                               Max. Height   Min. Depth
                                   Hours       Above Crown    Below Rim
  Node                 Type      Surcharged           Feet         Feet
  ---------------------------------------------------------------------
  54                   JUNCTION        3.38          0.900        0.000
  920                  JUNCTION        1.16          0.000        0.000
  921                  JUNCTION        0.79          0.000        0.000
  923                  JUNCTION        3.16          1.000        0.000
  924                  JUNCTION        3.10          1.000        0.000
  934                  JUNCTION       22.98          4.500        0.000
  937                  JUNCTION       22.98          4.500        0.000
  JC48                 JUNCTION       22.75        145.825        0.000
  
  
  *********************
  Node Flooding Summary
  *********************
  
  Flooding refers to all water that overflows a node, whether it ponds or not.
  --------------------------------------------------------------------------
                                                             Total   Maximum
                                 Maximum   Time of Max       Flood    Ponded
                        Hours       Rate    Occurrence      Volume     Depth
  Node                 Flooded       CFS   days hr:min    10^6 gal      Feet
  --------------------------------------------------------------------------
  54                      0.01      0.98      0  13:11       0.000     0.000
  920                     1.15      2.31      0  13:58       0.060     0.000
  921                     0.79      0.79      0  13:37       0.015     0.000
  923                     2.72      1.01      0  13:37       0.049     0.000
  924                     0.01      0.13      0  13:11       0.000     0.000
  934                    22.98      2.43      0  13:15       0.460     0.000
  937                    22.84      1.87      0  13:15       0.353     0.000
  
  
  **********************
  Storage Volume Summary
  **********************
  
  --------------------------------------------------------------------------------------------------
                         Average     Avg  Evap Exfil       Maximum     Max    Time of Max    Maximum
                          Volume    Pcnt  Pcnt  Pcnt        Volume    Pcnt     Occurrence    Outflow
  Storage Unit          1000 ft3    Full  Loss  Loss      1000 ft3    Full    days hr:min        CFS
  --------------------------------------------------------------------------------------------------
  WW48                     0.034       2     0     0         0.678      33       0  00:00       2.00
  
  
  ***********************
  Outfall Loading Summary
  ***********************
  
  -----------------------------------------------------------
                         Flow       Avg       Max       Total
                         Freq      Flow      Flow      Volume
  Outfall Node           Pcnt       CFS       CFS    10^6 gal
  -----------------------------------------------------------
  OUTLET94              92.48      1.79      3.53       1.017
  -----------------------------------------------------------
  System                92.48      1.79      3.53       1.017
  
  
  ********************
  Link Flow Summary
  ********************
  
  -----------------------------------------------------------------------------
                                 Maximum  Time of Max   Maximum    Max/    Max/
                                  |Flow|   Occurrence   |Veloc|    Full    Full
  Link                 Type          CFS  days hr:min    ft/sec    Flow   Depth
  -----------------------------------------------------------------------------
  911                  CONDUIT      3.03     0  13:12      4.16    1.39    0.87
  913                  CONDUIT      1.50     0  14:00      2.56    0.88    0.70
  917                  CONDUIT      0.50     0  13:36      2.63    0.58    0.53
  929                  CONDUIT      0.50     0  13:45      3.81    0.33    0.40
  930                  CONDUIT      1.04     0  13:12      2.60    0.53    0.59
  934                  CONDUIT      1.98     0  13:08      4.07    0.62    1.00
  935                  CONDUIT      2.93     0  13:37      3.72    1.25    1.00
  936                  CONDUIT      2.91     0  13:11      3.71    1.39    1.00
  937                  CONDUIT      3.41     0  13:10      4.50    1.26    1.00
  938                  CONDUIT      2.00     0  14:00      4.21    0.63    0.58
  939                  CONDUIT      2.50     0  14:00      4.19    0.76    0.82
  940                  CONDUIT      4.47     0  18:17     13.25    0.63    0.70
  941                  CONDUIT      0.50     0  13:03      3.14    0.43    0.54
  942                  CONDUIT      1.00     0  14:00      3.28    1.00    0.82
  943                  CONDUIT      1.54     0  13:10      4.10    0.45    0.73
  FM100                CONDUIT      0.44     0  13:15      1.62    0.29    0.44
  FM101                CONDUIT      1.21     0  13:37      3.16    0.46    0.49
  FM101A               CONDUIT      0.86     0  13:21      2.68    0.53    0.53
  FM51                 CONDUIT      8.00     0  18:04    >50.00    4.85    0.91
  FM51A                CONDUIT      1.67     0  18:04      9.02    0.75    0.91
  FM51B                CONDUIT      1.51     0  18:04      8.17    0.75    0.91
  FM52                 CONDUIT      0.22     0  13:14      0.45    0.11    0.60
  FM52A                CONDUIT      0.22     0  13:38      0.45    0.11    0.60
  P51                  PUMP         2.00     0  00:00              1.00
  
  
  ***************************
  Flow Classification Summary
  ***************************
  
  -------------------------------------------------------------------------------------
                      Adjusted    ---------- Fraction of Time in Flow Class ---------- 
                       /Actual         Up    Down  Sub   Sup   Up    Down  Norm  Inlet 
  Conduit               Length    Dry  Dry   Dry   Crit  Crit  Crit  Crit  Ltd   Ctrl  
  -------------------------------------------------------------------------------------
  911                     1.00   0.00  0.00  0.00  0.96  0.04  0.00  0.00  0.00  0.00
  913                     1.00   0.00  0.00  0.00  0.00  0.00  0.00  1.00  0.00  0.00
  917                     1.00   0.00  0.00  0.00  0.00  0.00  0.00  1.00  0.00  0.00
  929                     1.00   0.00  0.00  0.00  0.00  0.00  0.00  1.00  0.00  0.00
  930                     1.00   0.00  0.00  0.00  0.32  0.00  0.00  0.68  0.14  0.00
  934                     1.00   0.00  0.00  0.00  0.28  0.10  0.00  0.62  0.20  0.00
  935                     1.00   0.00  0.00  0.00  0.34  0.00  0.00  0.66  0.17  0.00
  936                     1.00   0.00  0.00  0.00  0.15  0.00  0.00  0.85  0.00  0.00
  937                     1.00   0.00  0.00  0.00  0.28  0.00  0.00  0.72  0.02  0.00
  938                     1.00   0.00  0.00  0.00  0.00  0.00  0.00  1.00  0.00  0.00
  939                     1.00   0.00  0.00  0.00  0.06  0.00  0.00  0.94  0.05  0.00
  940                     1.00   0.00  0.00  0.00  0.12  0.88  0.00  0.00  0.10  0.00
  941                     1.00   0.00  0.00  0.00  0.04  0.00  0.00  0.95  0.04  0.00
  942                     1.00   0.00  0.00  0.00  0.00  0.00  0.00  1.00  0.00  0.00
  943                     1.00   0.00  0.00  0.00  0.12  0.00  0.00  0.88  0.12  0.00
  FM100                   1.00   0.00  0.00  0.00  1.00  0.00  0.00  0.00  0.97  0.00
  FM101                   1.00   0.00  0.00  0.00  0.00  0.00  0.00  1.00  0.00  0.00
  FM101A                  1.00   0.00  0.00  0.00  1.00  0.00  0.00  0.00  0.35  0.00
  FM51                    1.00   0.00  0.00  0.00  0.23  0.77  0.00  0.00  0.00  0.00
  FM51A                   1.00   0.00  0.00  0.00  0.61  0.39  0.00  0.00  0.98  0.00
  FM51B                   1.00   0.00  0.00  0.00  0.63  0.37  0.00  0.00  0.98  0.00
  FM52                    1.00   0.22  0.65  0.00  0.00  0.00  0.13  0.00  0.00  0.00
  FM52A                   1.00   0.22  0.65  0.00  0.00  0.00  0.13  0.00  0.00  0.00
  
  
  *************************
  Conduit Surcharge Summary
  *************************
  
  ----------------------------------------------------------------------------
                                                           Hours        Hours 
                         --------- Hours Full --------   Above Full   Capacity
  Conduit                Both Ends  Upstream  Dnstream   Normal Flow   Limited
  ----------------------------------------------------------------------------
  911                         0.01      7.04      0.01      7.32         0.01
  934                         2.27      2.27      3.01      0.01         0.01
  935                         3.07      3.07      3.16      2.82         2.82
  936                         3.10      3.26      3.10      5.14         3.09
  937                         3.16      3.25      3.38      2.95         3.00
  939                         0.01      0.01      1.15      0.01         0.01
  940                         0.01      1.17      2.01      0.01         0.01
  943                         0.01      0.01      0.79      0.01         0.01
  FM51                        0.01      0.01     22.72      3.02         0.01
  FM51A                       0.01      0.01     22.98      0.01         0.01
  FM51B                       0.01      0.01     22.98      0.01         0.01
  FM52                        0.01      0.01     20.96      0.01         0.01
  FM52A                       0.01      0.01     20.96      0.01         0.01
  
  
  ***************
  Pumping Summary
  ***************
  
  ---------------------------------------------------------------------------------------------------------
                                                  Min       Avg       Max     Total     Power    % Time Off
                        Percent   Number of      Flow      Flow      Flow    Volume     Usage    Pump Curve
  Pump                 Utilized   Start-Ups       CFS       CFS       CFS  10^6 gal     Kw-hr    Low   High
  ---------------------------------------------------------------------------------------------------------
  P51                     87.62           2      0.00      0.98      2.00     0.532     82.40    0.0   66.5
  

  Analysis begun on:  Wed Jan 02 04:45:57 2019
  Analysis ended on:  Wed Jan 02 04:45:58 2019
  Total elapsed time: 00:00:01