
  EPA STORM WATER MANAGEMENT MODEL - VERSION 5.1 (Build 5.1.012)
  --------------------------------------------------------------

   SW 1 9 0 
  
  WARNING 04: minimum elevation drop used for Conduit 23809013-23809049
  WARNING 04: minimum elevation drop used for Conduit 23809049-23809050
  WARNING 04: minimum elevation drop used for Conduit 23809050-23809002
  WARNING 08: elevation drop exceeds length for Conduit 23916008-23916007
  
  *********************************************************
  NOTE: The summary statistics displayed in this report are
  based on results found at every computational time step,  
  not just on results from each reporting time step.
  *********************************************************
  
  ****************
  Analysis Options
  ****************
  Flow Units ............... MGD
  Process Models:
    Rainfall/Runoff ........ NO
    RDII ................... NO
    Snowmelt ............... NO
    Groundwater ............ NO
    Flow Routing ........... YES
    Ponding Allowed ........ NO
    Water Quality .......... NO
  Flow Routing Method ...... DYNWAVE
  Starting Date ............ 05/08/2000 00:00:00
  Ending Date .............. 05/09/2000 03:00:00
  Antecedent Dry Days ...... 0.0
  Report Time Step ......... 00:05:00
  Routing Time Step ........ 5.00 sec
  Variable Time Step ....... YES
  Maximum Trials ........... 8
  Number of Threads ........ 1
  Head Tolerance ........... 0.005000 ft
  
  
  **************************        Volume        Volume
  Flow Routing Continuity        acre-feet      10^6 gal
  **************************     ---------     ---------
  Dry Weather Inflow .......         0.000         0.000
  Wet Weather Inflow .......         0.000         0.000
  Groundwater Inflow .......         0.000         0.000
  RDII Inflow ..............         0.000         0.000
  External Inflow ..........         0.000         0.000
  External Outflow .........         0.000         0.000
  Flooding Loss ............         0.000         0.000
  Evaporation Loss .........         0.000         0.000
  Exfiltration Loss ........         0.000         0.000
  Initial Stored Volume ....         0.000         0.000
  Final Stored Volume ......         0.000         0.000
  Continuity Error (%) .....         0.000
  
  
  ***************************
  Time-Step Critical Elements
  ***************************
  None
  
  
  ********************************
  Highest Flow Instability Indexes
  ********************************
  All links are stable.
  
  
  *************************
  Routing Time Step Summary
  *************************
  Minimum Time Step           :     4.50 sec
  Average Time Step           :     5.00 sec
  Maximum Time Step           :     5.00 sec
  Percent in Steady State     :     0.00
  Average Iterations per Step :     2.00
  Percent Not Converging      :     0.00
  
  
  ******************
  Node Depth Summary
  ******************
  
  ---------------------------------------------------------------------------------
                                 Average  Maximum  Maximum  Time of Max    Reported
                                   Depth    Depth      HGL   Occurrence   Max Depth
  Node                 Type         Feet     Feet     Feet  days hr:min        Feet
  ---------------------------------------------------------------------------------
  20704016             JUNCTION     0.00     0.00   874.33     0  00:00        0.00
  20704017             JUNCTION     0.00     0.00   870.82     0  00:00        0.00
  20704018             JUNCTION     0.00     0.00   860.89     0  00:00        0.00
  20704025             JUNCTION     0.00     0.00   849.69     0  00:00        0.00
  20712009             JUNCTION     0.00     0.00   895.90     0  00:00        0.00
  20712010             JUNCTION     0.00     0.00   882.17     0  00:00        0.00
  20712011             JUNCTION     0.00     0.00   870.56     0  00:00        0.00
  20713008             JUNCTION     0.00     0.00   898.59     0  00:00        0.00
  23701001             JUNCTION     0.00     0.00   882.16     0  00:00        0.00
  23701005             JUNCTION     0.00     0.00   888.95     0  00:00        0.00
  23701006             JUNCTION     0.00     0.00   891.36     0  00:00        0.00
  23701007             JUNCTION     0.00     0.00   892.42     0  00:00        0.00
  23701008             JUNCTION     0.00     0.00   894.50     0  00:00        0.00
  23701009             JUNCTION     0.00     0.00   897.40     0  00:00        0.00
  23701010             JUNCTION     0.00     0.00   897.92     0  00:00        0.00
  23701011             JUNCTION     0.00     0.00   901.98     0  00:00        0.00
  23701016             JUNCTION     0.00     0.00   896.61     0  00:00        0.00
  23701017             JUNCTION     0.00     0.00   894.06     0  00:00        0.00
  23701018             JUNCTION     0.00     0.00   892.94     0  00:00        0.00
  23701019             JUNCTION     0.00     0.00   892.13     0  00:00        0.00
  23701023             JUNCTION     0.00     0.00   913.82     0  00:00        0.00
  23701029             JUNCTION     0.00     0.00   907.11     0  00:00        0.00
  23701032             JUNCTION     0.00     0.00   896.21     0  00:00        0.00
  23701034             JUNCTION     0.00     0.00   897.05     0  00:00        0.00
  23701035             JUNCTION     0.00     0.00   891.33     0  00:00        0.00
  23701040             JUNCTION     0.00     0.00   876.29     0  00:00        0.00
  23702010             JUNCTION     0.00     0.00   862.74     0  00:00        0.00
  23702011             JUNCTION     0.00     0.00   863.06     0  00:00        0.00
  23702013             JUNCTION     0.00     0.00   860.88     0  00:00        0.00
  23702014             JUNCTION     0.00     0.00   865.32     0  00:00        0.00
  23702015             JUNCTION     0.00     0.00   868.22     0  00:00        0.00
  23702026             JUNCTION     0.00     0.00   862.12     0  00:00        0.00
  23702027             JUNCTION     0.00     0.00   867.19     0  00:00        0.00
  23702028             JUNCTION     0.00     0.00   878.49     0  00:00        0.00
  23702029             JUNCTION     0.00     0.00   888.71     0  00:00        0.00
  23702030             JUNCTION     0.00     0.00   862.32     0  00:00        0.00
  23702031             JUNCTION     0.00     0.00   863.78     0  00:00        0.00
  23702032             JUNCTION     0.00     0.00   866.27     0  00:00        0.00
  23702036             JUNCTION     0.00     0.00   867.89     0  00:00        0.00
  23702037             JUNCTION     0.00     0.00   874.58     0  00:00        0.00
  23702038             JUNCTION     0.00     0.00   874.35     0  00:00        0.00
  23702039             JUNCTION     0.00     0.00   876.35     0  00:00        0.00
  23702040             JUNCTION     0.00     0.00   878.82     0  00:00        0.00
  23702045             JUNCTION     0.00     0.00   863.81     0  00:00        0.00
  23702051             JUNCTION     0.00     0.00   860.97     0  00:00        0.00
  23702052             JUNCTION     0.00     0.00   861.06     0  00:00        0.00
  23703001             JUNCTION     0.00     0.00   901.01     0  00:00        0.00
  23703002             JUNCTION     0.00     0.00   911.02     0  00:00        0.00
  23703003             JUNCTION     0.00     0.00   913.80     0  00:00        0.00
  23707003             JUNCTION     0.00     0.00   885.51     0  00:00        0.00
  23707004             JUNCTION     0.00     0.00   882.68     0  00:00        0.00
  23707005             JUNCTION     0.00     0.00   879.19     0  00:00        0.00
  23707006             JUNCTION     0.00     0.00   877.72     0  00:00        0.00
  23707007             JUNCTION     0.00     0.00   890.83     0  00:00        0.00
  23707008             JUNCTION     0.00     0.00   887.93     0  00:00        0.00
  23707011             JUNCTION     0.00     0.00   893.24     0  00:00        0.00
  23707014             JUNCTION     0.00     0.00   884.52     0  00:00        0.00
  23707015             JUNCTION     0.00     0.00   890.03     0  00:00        0.00
  23708023             JUNCTION     0.00     0.00   892.89     0  00:00        0.00
  23708024             JUNCTION     0.00     0.00   895.33     0  00:00        0.00
  23708025             JUNCTION     0.00     0.00   893.84     0  00:00        0.00
  23708026             JUNCTION     0.00     0.00   895.74     0  00:00        0.00
  23708027             JUNCTION     0.00     0.00   898.30     0  00:00        0.00
  23708030             JUNCTION     0.00     0.00   900.24     0  00:00        0.00
  23801001             JUNCTION     0.00     0.00   825.75     0  00:00        0.00
  23801003             JUNCTION     0.00     0.00   820.83     0  00:00        0.00
  23801005             JUNCTION     0.00     0.00   821.68     0  00:00        0.00
  23801007             JUNCTION     0.00     0.00   848.95     0  00:00        0.00
  23801008             JUNCTION     0.00     0.00   848.47     0  00:00        0.00
  23801009             JUNCTION     0.00     0.00   847.09     0  00:00        0.00
  23801010             JUNCTION     0.00     0.00   845.66     0  00:00        0.00
  23801011             JUNCTION     0.00     0.00   840.40     0  00:00        0.00
  23801012             JUNCTION     0.00     0.00   833.81     0  00:00        0.00
  23801013             JUNCTION     0.00     0.00   823.40     0  00:00        0.00
  23801014             JUNCTION     0.00     0.00   857.89     0  00:00        0.00
  23801015             JUNCTION     0.00     0.00   849.75     0  00:00        0.00
  23801016             JUNCTION     0.00     0.00   841.49     0  00:00        0.00
  23801017             JUNCTION     0.00     0.00   829.65     0  00:00        0.00
  23801018             JUNCTION     0.00     0.00   824.86     0  00:00        0.00
  23801020             JUNCTION     0.00     0.00   852.44     0  00:00        0.00
  23801022             JUNCTION     0.00     0.00   845.78     0  00:00        0.00
  23801025             JUNCTION     0.00     0.00   842.79     0  00:00        0.00
  23801026             JUNCTION     0.00     0.00   829.73     0  00:00        0.00
  23801027             JUNCTION     0.00     0.00   825.25     0  00:00        0.00
  23801028             JUNCTION     0.00     0.00   826.42     0  00:00        0.00
  23801029             JUNCTION     0.00     0.00   835.32     0  00:00        0.00
  23801032             JUNCTION     0.00     0.00   821.95     0  00:00        0.00
  23802012             JUNCTION     0.00     0.00   859.87     0  00:00        0.00
  23807002             JUNCTION     0.00     0.00   831.45     0  00:00        0.00
  23807003             JUNCTION     0.00     0.00   836.36     0  00:00        0.00
  23807004             JUNCTION     0.00     0.00   839.00     0  00:00        0.00
  23807011             JUNCTION     0.00     0.00   835.26     0  00:00        0.00
  23807012             JUNCTION     0.00     0.00   836.74     0  00:00        0.00
  23807013             JUNCTION     0.00     0.00   837.75     0  00:00        0.00
  23807017             JUNCTION     0.00     0.00   852.74     0  00:00        0.00
  23807018             JUNCTION     0.00     0.00   847.59     0  00:00        0.00
  23807020             JUNCTION     0.00     0.00   842.05     0  00:00        0.00
  23807022             JUNCTION     0.00     0.00   836.02     0  00:00        0.00
  23807028             JUNCTION     0.00     0.00   833.72     0  00:00        0.00
  23807031             JUNCTION     0.00     0.00   844.00     0  00:00        0.00
  23807037             JUNCTION     0.00     0.00   844.91     0  00:00        0.00
  23808005             JUNCTION     0.00     0.00   858.04     0  00:00        0.00
  23808006             JUNCTION     0.00     0.00   845.20     0  00:00        0.00
  23808012             JUNCTION     0.00     0.00   849.18     0  00:00        0.00
  23808013             JUNCTION     0.00     0.00   879.85     0  00:00        0.00
  23808016             JUNCTION     0.00     0.00   849.49     0  00:00        0.00
  23808017             JUNCTION     0.00     0.00   848.45     0  00:00        0.00
  23808018             JUNCTION     0.00     0.00   845.57     0  00:00        0.00
  23808019             JUNCTION     0.00     0.00   827.44     0  00:00        0.00
  23808020             JUNCTION     0.00     0.00   830.79     0  00:00        0.00
  23808021             JUNCTION     0.00     0.00   836.72     0  00:00        0.00
  23808022             JUNCTION     0.00     0.00   840.89     0  00:00        0.00
  23808023             JUNCTION     0.00     0.00   842.73     0  00:00        0.00
  23808024             JUNCTION     0.00     0.00   854.19     0  00:00        0.00
  23808025             JUNCTION     0.00     0.00   859.38     0  00:00        0.00
  23808030             JUNCTION     0.00     0.00   876.60     0  00:00        0.00
  23808031             JUNCTION     0.00     0.00   837.65     0  00:00        0.00
  23808032             JUNCTION     0.00     0.00   830.76     0  00:00        0.00
  23809002             JUNCTION     0.00     0.00   850.60     0  00:00        0.00
  23809003             JUNCTION     0.00     0.00   867.58     0  00:00        0.00
  23809004             JUNCTION     0.00     0.00   865.28     0  00:00        0.00
  23809005             JUNCTION     0.00     0.00   863.24     0  00:00        0.00
  23809006             JUNCTION     0.00     0.00   862.30     0  00:00        0.00
  23809013             JUNCTION     0.00     0.00   850.76     0  00:00        0.00
  23809014             JUNCTION     0.00     0.00   854.16     0  00:00        0.00
  23809015             JUNCTION     0.00     0.00   857.50     0  00:00        0.00
  23809019             JUNCTION     0.00     0.00   855.83     0  00:00        0.00
  23809026             JUNCTION     0.00     0.00   864.88     0  00:00        0.00
  23809027             JUNCTION     0.00     0.00   870.41     0  00:00        0.00
  23809028             JUNCTION     0.00     0.00   875.63     0  00:00        0.00
  23809042             JUNCTION     0.00     0.00   853.58     0  00:00        0.00
  23809049             JUNCTION     0.00     0.00   850.76     0  00:00        0.00
  23809050             JUNCTION     0.00     0.00   850.70     0  00:00        0.00
  23809053             JUNCTION     0.00     0.00   859.94     0  00:00        0.00
  23810003             JUNCTION     0.00     0.00   853.02     0  00:00        0.00
  23810008             JUNCTION     0.00     0.00   839.38     0  00:00        0.00
  23810009             JUNCTION     0.00     0.00   840.46     0  00:00        0.00
  23810010             JUNCTION     0.00     0.00   844.27     0  00:00        0.00
  23810011             JUNCTION     0.00     0.00   846.37     0  00:00        0.00
  23810012             JUNCTION     0.00     0.00   848.61     0  00:00        0.00
  23810013             JUNCTION     0.00     0.00   850.69     0  00:00        0.00
  23810014             JUNCTION     0.00     0.00   845.63     0  00:00        0.00
  23810015             JUNCTION     0.00     0.00   851.94     0  00:00        0.00
  23810016             JUNCTION     0.00     0.00   859.07     0  00:00        0.00
  23810017             JUNCTION     0.00     0.00   865.49     0  00:00        0.00
  23810018             JUNCTION     0.00     0.00   871.93     0  00:00        0.00
  23810019             JUNCTION     0.00     0.00   847.26     0  00:00        0.00
  23810022             JUNCTION     0.00     0.00   849.04     0  00:00        0.00
  23810023             JUNCTION     0.00     0.00   850.78     0  00:00        0.00
  23810024             JUNCTION     0.00     0.00   855.38     0  00:00        0.00
  23810025             JUNCTION     0.00     0.00   856.14     0  00:00        0.00
  23810026             JUNCTION     0.00     0.00   857.62     0  00:00        0.00
  23810031             JUNCTION     0.00     0.00   848.74     0  00:00        0.00
  23810032             JUNCTION     0.00     0.00   845.15     0  00:00        0.00
  23810033             JUNCTION     0.00     0.00   850.75     0  00:00        0.00
  23811003             JUNCTION     0.00     0.00   877.60     0  00:00        0.00
  23811004             JUNCTION     0.00     0.00   884.74     0  00:00        0.00
  23811005             JUNCTION     0.00     0.00   887.02     0  00:00        0.00
  23811028             JUNCTION     0.00     0.00   877.73     0  00:00        0.00
  23811029             JUNCTION     0.00     0.00   887.11     0  00:00        0.00
  23814006             JUNCTION     0.00     0.00   886.26     0  00:00        0.00
  23814009             JUNCTION     0.00     0.00   880.52     0  00:00        0.00
  23814010             JUNCTION     0.00     0.00   883.48     0  00:00        0.00
  23815002             JUNCTION     0.00     0.00   880.67     0  00:00        0.00
  23815003             JUNCTION     0.00     0.00   882.98     0  00:00        0.00
  23815004             JUNCTION     0.00     0.00   884.31     0  00:00        0.00
  23815005             JUNCTION     0.00     0.00   885.34     0  00:00        0.00
  23815008             JUNCTION     0.00     0.00   880.22     0  00:00        0.00
  23815009             JUNCTION     0.00     0.00   870.13     0  00:00        0.00
  23815010             JUNCTION     0.00     0.00   863.15     0  00:00        0.00
  23815014             JUNCTION     0.00     0.00   851.91     0  00:00        0.00
  23815015             JUNCTION     0.00     0.00   854.22     0  00:00        0.00
  23815016             JUNCTION     0.00     0.00   857.22     0  00:00        0.00
  23815017             JUNCTION     0.00     0.00   859.59     0  00:00        0.00
  23815018             JUNCTION     0.00     0.00   859.73     0  00:00        0.00
  23815019             JUNCTION     0.00     0.00   855.58     0  00:00        0.00
  23815020             JUNCTION     0.00     0.00   853.08     0  00:00        0.00
  23815021             JUNCTION     0.00     0.00   855.84     0  00:00        0.00
  23815022             JUNCTION     0.00     0.00   857.94     0  00:00        0.00
  23815023             JUNCTION     0.00     0.00   859.48     0  00:00        0.00
  23815024             JUNCTION     0.00     0.00   861.19     0  00:00        0.00
  23815025             JUNCTION     0.00     0.00   859.10     0  00:00        0.00
  23815026             JUNCTION     0.00     0.00   868.28     0  00:00        0.00
  23815029             JUNCTION     0.00     0.00   876.74     0  00:00        0.00
  23815030             JUNCTION     0.00     0.00   873.51     0  00:00        0.00
  23815031             JUNCTION     0.00     0.00   869.87     0  00:00        0.00
  23815032             JUNCTION     0.00     0.00   867.97     0  00:00        0.00
  23815033             JUNCTION     0.00     0.00   866.39     0  00:00        0.00
  23815038             JUNCTION     0.00     0.00   852.60     0  00:00        0.00
  23816003             JUNCTION     0.00     0.00   861.91     0  00:00        0.00
  23816006             JUNCTION     0.00     0.00   864.48     0  00:00        0.00
  23816011             JUNCTION     0.00     0.00   865.00     0  00:00        0.00
  23816014             JUNCTION     0.00     0.00   868.14     0  00:00        0.00
  23816015             JUNCTION     0.00     0.00   870.41     0  00:00        0.00
  23816016             JUNCTION     0.00     0.00   874.49     0  00:00        0.00
  23816017             JUNCTION     0.00     0.00   884.69     0  00:00        0.00
  23816018             JUNCTION     0.00     0.00   886.62     0  00:00        0.00
  23816036             JUNCTION     0.00     0.00   867.25     0  00:00        0.00
  23816037             JUNCTION     0.00     0.00   866.00     0  00:00        0.00
  23916007             JUNCTION     0.00     0.00   816.91     0  00:00        0.00
  23916008             JUNCTION     0.00     0.00   826.94     0  00:00        0.00
  23916014             JUNCTION     0.00     0.00   838.65     0  00:00        0.00
  23916015             JUNCTION     0.00     0.00   818.26     0  00:00        0.00
  23916016             JUNCTION     0.00     0.00   827.15     0  00:00        0.00
  23916017             JUNCTION     0.00     0.00   830.19     0  00:00        0.00
  23916025             JUNCTION     0.00     0.00   831.99     0  00:00        0.00
  23916026             JUNCTION     0.00     0.00   819.77     0  00:00        0.00
  23916027             JUNCTION     0.00     0.00   828.57     0  00:00        0.00
  23916003             OUTFALL      0.00     0.00   815.23     0  00:00        0.00
  
  
  *******************
  Node Inflow Summary
  *******************
  
  -------------------------------------------------------------------------------------------------
                                  Maximum  Maximum                  Lateral       Total        Flow
                                  Lateral    Total  Time of Max      Inflow      Inflow     Balance
                                   Inflow   Inflow   Occurrence      Volume      Volume       Error
  Node                 Type           MGD      MGD  days hr:min    10^6 gal    10^6 gal     Percent
  -------------------------------------------------------------------------------------------------
  20704016             JUNCTION     0.000    0.000     0  00:00           0           0       0.000 gal
  20704017             JUNCTION     0.000    0.000     0  00:00           0           0       0.000 gal
  20704018             JUNCTION     0.000    0.000     0  00:00           0           0       0.000 gal
  20704025             JUNCTION     0.000    0.000     0  00:00           0           0       0.000 gal
  20712009             JUNCTION     0.000    0.000     0  00:00           0           0       0.000 gal
  20712010             JUNCTION     0.000    0.000     0  00:00           0           0       0.000 gal
  20712011             JUNCTION     0.000    0.000     0  00:00           0           0       0.000 gal
  20713008             JUNCTION     0.000    0.000     0  00:00           0           0       0.000 gal
  23701001             JUNCTION     0.000    0.000     0  00:00           0           0       0.000 gal
  23701005             JUNCTION     0.000    0.000     0  00:00           0           0       0.000 gal
  23701006             JUNCTION     0.000    0.000     0  00:00           0           0       0.000 gal
  23701007             JUNCTION     0.000    0.000     0  00:00           0           0       0.000 gal
  23701008             JUNCTION     0.000    0.000     0  00:00           0           0       0.000 gal
  23701009             JUNCTION     0.000    0.000     0  00:00           0           0       0.000 gal
  23701010             JUNCTION     0.000    0.000     0  00:00           0           0       0.000 gal
  23701011             JUNCTION     0.000    0.000     0  00:00           0           0       0.000 gal
  23701016             JUNCTION     0.000    0.000     0  00:00           0           0       0.000 gal
  23701017             JUNCTION     0.000    0.000     0  00:00           0           0       0.000 gal
  23701018             JUNCTION     0.000    0.000     0  00:00           0           0       0.000 gal
  23701019             JUNCTION     0.000    0.000     0  00:00           0           0       0.000 gal
  23701023             JUNCTION     0.000    0.000     0  00:00           0           0       0.000 gal
  23701029             JUNCTION     0.000    0.000     0  00:00           0           0       0.000 gal
  23701032             JUNCTION     0.000    0.000     0  00:00           0           0       0.000 gal
  23701034             JUNCTION     0.000    0.000     0  00:00           0           0       0.000 gal
  23701035             JUNCTION     0.000    0.000     0  00:00           0           0       0.000 gal
  23701040             JUNCTION     0.000    0.000     0  00:00           0           0       0.000 gal
  23702010             JUNCTION     0.000    0.000     0  00:00           0           0       0.000 gal
  23702011             JUNCTION     0.000    0.000     0  00:00           0           0       0.000 gal
  23702013             JUNCTION     0.000    0.000     0  00:00           0           0       0.000 gal
  23702014             JUNCTION     0.000    0.000     0  00:00           0           0       0.000 gal
  23702015             JUNCTION     0.000    0.000     0  00:00           0           0       0.000 gal
  23702026             JUNCTION     0.000    0.000     0  00:00           0           0       0.000 gal
  23702027             JUNCTION     0.000    0.000     0  00:00           0           0       0.000 gal
  23702028             JUNCTION     0.000    0.000     0  00:00           0           0       0.000 gal
  23702029             JUNCTION     0.000    0.000     0  00:00           0           0       0.000 gal
  23702030             JUNCTION     0.000    0.000     0  00:00           0           0       0.000 gal
  23702031             JUNCTION     0.000    0.000     0  00:00           0           0       0.000 gal
  23702032             JUNCTION     0.000    0.000     0  00:00           0           0       0.000 gal
  23702036             JUNCTION     0.000    0.000     0  00:00           0           0       0.000 gal
  23702037             JUNCTION     0.000    0.000     0  00:00           0           0       0.000 gal
  23702038             JUNCTION     0.000    0.000     0  00:00           0           0       0.000 gal
  23702039             JUNCTION     0.000    0.000     0  00:00           0           0       0.000 gal
  23702040             JUNCTION     0.000    0.000     0  00:00           0           0       0.000 gal
  23702045             JUNCTION     0.000    0.000     0  00:00           0           0       0.000 gal
  23702051             JUNCTION     0.000    0.000     0  00:00           0           0       0.000 gal
  23702052             JUNCTION     0.000    0.000     0  00:00           0           0       0.000 gal
  23703001             JUNCTION     0.000    0.000     0  00:00           0           0       0.000 gal
  23703002             JUNCTION     0.000    0.000     0  00:00           0           0       0.000 gal
  23703003             JUNCTION     0.000    0.000     0  00:00           0           0       0.000 gal
  23707003             JUNCTION     0.000    0.000     0  00:00           0           0       0.000 gal
  23707004             JUNCTION     0.000    0.000     0  00:00           0           0       0.000 gal
  23707005             JUNCTION     0.000    0.000     0  00:00           0           0       0.000 gal
  23707006             JUNCTION     0.000    0.000     0  00:00           0           0       0.000 gal
  23707007             JUNCTION     0.000    0.000     0  00:00           0           0       0.000 gal
  23707008             JUNCTION     0.000    0.000     0  00:00           0           0       0.000 gal
  23707011             JUNCTION     0.000    0.000     0  00:00           0           0       0.000 gal
  23707014             JUNCTION     0.000    0.000     0  00:00           0           0       0.000 gal
  23707015             JUNCTION     0.000    0.000     0  00:00           0           0       0.000 gal
  23708023             JUNCTION     0.000    0.000     0  00:00           0           0       0.000 gal
  23708024             JUNCTION     0.000    0.000     0  00:00           0           0       0.000 gal
  23708025             JUNCTION     0.000    0.000     0  00:00           0           0       0.000 gal
  23708026             JUNCTION     0.000    0.000     0  00:00           0           0       0.000 gal
  23708027             JUNCTION     0.000    0.000     0  00:00           0           0       0.000 gal
  23708030             JUNCTION     0.000    0.000     0  00:00           0           0       0.000 gal
  23801001             JUNCTION     0.000    0.000     0  00:00           0           0       0.000 gal
  23801003             JUNCTION     0.000    0.000     0  00:00           0           0       0.000 gal
  23801005             JUNCTION     0.000    0.000     0  00:00           0           0       0.000 gal
  23801007             JUNCTION     0.000    0.000     0  00:00           0           0       0.000 gal
  23801008             JUNCTION     0.000    0.000     0  00:00           0           0       0.000 gal
  23801009             JUNCTION     0.000    0.000     0  00:00           0           0       0.000 gal
  23801010             JUNCTION     0.000    0.000     0  00:00           0           0       0.000 gal
  23801011             JUNCTION     0.000    0.000     0  00:00           0           0       0.000 gal
  23801012             JUNCTION     0.000    0.000     0  00:00           0           0       0.000 gal
  23801013             JUNCTION     0.000    0.000     0  00:00           0           0       0.000 gal
  23801014             JUNCTION     0.000    0.000     0  00:00           0           0       0.000 gal
  23801015             JUNCTION     0.000    0.000     0  00:00           0           0       0.000 gal
  23801016             JUNCTION     0.000    0.000     0  00:00           0           0       0.000 gal
  23801017             JUNCTION     0.000    0.000     0  00:00           0           0       0.000 gal
  23801018             JUNCTION     0.000    0.000     0  00:00           0           0       0.000 gal
  23801020             JUNCTION     0.000    0.000     0  00:00           0           0       0.000 gal
  23801022             JUNCTION     0.000    0.000     0  00:00           0           0       0.000 gal
  23801025             JUNCTION     0.000    0.000     0  00:00           0           0       0.000 gal
  23801026             JUNCTION     0.000    0.000     0  00:00           0           0       0.000 gal
  23801027             JUNCTION     0.000    0.000     0  00:00           0           0       0.000 gal
  23801028             JUNCTION     0.000    0.000     0  00:00           0           0       0.000 gal
  23801029             JUNCTION     0.000    0.000     0  00:00           0           0       0.000 gal
  23801032             JUNCTION     0.000    0.000     0  00:00           0           0       0.000 gal
  23802012             JUNCTION     0.000    0.000     0  00:00           0           0       0.000 gal
  23807002             JUNCTION     0.000    0.000     0  00:00           0           0       0.000 gal
  23807003             JUNCTION     0.000    0.000     0  00:00           0           0       0.000 gal
  23807004             JUNCTION     0.000    0.000     0  00:00           0           0       0.000 gal
  23807011             JUNCTION     0.000    0.000     0  00:00           0           0       0.000 gal
  23807012             JUNCTION     0.000    0.000     0  00:00           0           0       0.000 gal
  23807013             JUNCTION     0.000    0.000     0  00:00           0           0       0.000 gal
  23807017             JUNCTION     0.000    0.000     0  00:00           0           0       0.000 gal
  23807018             JUNCTION     0.000    0.000     0  00:00           0           0       0.000 gal
  23807020             JUNCTION     0.000    0.000     0  00:00           0           0       0.000 gal
  23807022             JUNCTION     0.000    0.000     0  00:00           0           0       0.000 gal
  23807028             JUNCTION     0.000    0.000     0  00:00           0           0       0.000 gal
  23807031             JUNCTION     0.000    0.000     0  00:00           0           0       0.000 gal
  23807037             JUNCTION     0.000    0.000     0  00:00           0           0       0.000 gal
  23808005             JUNCTION     0.000    0.000     0  00:00           0           0       0.000 gal
  23808006             JUNCTION     0.000    0.000     0  00:00           0           0       0.000 gal
  23808012             JUNCTION     0.000    0.000     0  00:00           0           0       0.000 gal
  23808013             JUNCTION     0.000    0.000     0  00:00           0           0       0.000 gal
  23808016             JUNCTION     0.000    0.000     0  00:00           0           0       0.000 gal
  23808017             JUNCTION     0.000    0.000     0  00:00           0           0       0.000 gal
  23808018             JUNCTION     0.000    0.000     0  00:00           0           0       0.000 gal
  23808019             JUNCTION     0.000    0.000     0  00:00           0           0       0.000 gal
  23808020             JUNCTION     0.000    0.000     0  00:00           0           0       0.000 gal
  23808021             JUNCTION     0.000    0.000     0  00:00           0           0       0.000 gal
  23808022             JUNCTION     0.000    0.000     0  00:00           0           0       0.000 gal
  23808023             JUNCTION     0.000    0.000     0  00:00           0           0       0.000 gal
  23808024             JUNCTION     0.000    0.000     0  00:00           0           0       0.000 gal
  23808025             JUNCTION     0.000    0.000     0  00:00           0           0       0.000 gal
  23808030             JUNCTION     0.000    0.000     0  00:00           0           0       0.000 gal
  23808031             JUNCTION     0.000    0.000     0  00:00           0           0       0.000 gal
  23808032             JUNCTION     0.000    0.000     0  00:00           0           0       0.000 gal
  23809002             JUNCTION     0.000    0.000     0  00:00           0           0       0.000 gal
  23809003             JUNCTION     0.000    0.000     0  00:00           0           0       0.000 gal
  23809004             JUNCTION     0.000    0.000     0  00:00           0           0       0.000 gal
  23809005             JUNCTION     0.000    0.000     0  00:00           0           0       0.000 gal
  23809006             JUNCTION     0.000    0.000     0  00:00           0           0       0.000 gal
  23809013             JUNCTION     0.000    0.000     0  00:00           0           0       0.000 gal
  23809014             JUNCTION     0.000    0.000     0  00:00           0           0       0.000 gal
  23809015             JUNCTION     0.000    0.000     0  00:00           0           0       0.000 gal
  23809019             JUNCTION     0.000    0.000     0  00:00           0           0       0.000 gal
  23809026             JUNCTION     0.000    0.000     0  00:00           0           0       0.000 gal
  23809027             JUNCTION     0.000    0.000     0  00:00           0           0       0.000 gal
  23809028             JUNCTION     0.000    0.000     0  00:00           0           0       0.000 gal
  23809042             JUNCTION     0.000    0.000     0  00:00           0           0       0.000 gal
  23809049             JUNCTION     0.000    0.000     0  00:00           0           0       0.000 gal
  23809050             JUNCTION     0.000    0.000     0  00:00           0           0       0.000 gal
  23809053             JUNCTION     0.000    0.000     0  00:00           0           0       0.000 gal
  23810003             JUNCTION     0.000    0.000     0  00:00           0           0       0.000 gal
  23810008             JUNCTION     0.000    0.000     0  00:00           0           0       0.000 gal
  23810009             JUNCTION     0.000    0.000     0  00:00           0           0       0.000 gal
  23810010             JUNCTION     0.000    0.000     0  00:00           0           0       0.000 gal
  23810011             JUNCTION     0.000    0.000     0  00:00           0           0       0.000 gal
  23810012             JUNCTION     0.000    0.000     0  00:00           0           0       0.000 gal
  23810013             JUNCTION     0.000    0.000     0  00:00           0           0       0.000 gal
  23810014             JUNCTION     0.000    0.000     0  00:00           0           0       0.000 gal
  23810015             JUNCTION     0.000    0.000     0  00:00           0           0       0.000 gal
  23810016             JUNCTION     0.000    0.000     0  00:00           0           0       0.000 gal
  23810017             JUNCTION     0.000    0.000     0  00:00           0           0       0.000 gal
  23810018             JUNCTION     0.000    0.000     0  00:00           0           0       0.000 gal
  23810019             JUNCTION     0.000    0.000     0  00:00           0           0       0.000 gal
  23810022             JUNCTION     0.000    0.000     0  00:00           0           0       0.000 gal
  23810023             JUNCTION     0.000    0.000     0  00:00           0           0       0.000 gal
  23810024             JUNCTION     0.000    0.000     0  00:00           0           0       0.000 gal
  23810025             JUNCTION     0.000    0.000     0  00:00           0           0       0.000 gal
  23810026             JUNCTION     0.000    0.000     0  00:00           0           0       0.000 gal
  23810031             JUNCTION     0.000    0.000     0  00:00           0           0       0.000 gal
  23810032             JUNCTION     0.000    0.000     0  00:00           0           0       0.000 gal
  23810033             JUNCTION     0.000    0.000     0  00:00           0           0       0.000 gal
  23811003             JUNCTION     0.000    0.000     0  00:00           0           0       0.000 gal
  23811004             JUNCTION     0.000    0.000     0  00:00           0           0       0.000 gal
  23811005             JUNCTION     0.000    0.000     0  00:00           0           0       0.000 gal
  23811028             JUNCTION     0.000    0.000     0  00:00           0           0       0.000 gal
  23811029             JUNCTION     0.000    0.000     0  00:00           0           0       0.000 gal
  23814006             JUNCTION     0.000    0.000     0  00:00           0           0       0.000 gal
  23814009             JUNCTION     0.000    0.000     0  00:00           0           0       0.000 gal
  23814010             JUNCTION     0.000    0.000     0  00:00           0           0       0.000 gal
  23815002             JUNCTION     0.000    0.000     0  00:00           0           0       0.000 gal
  23815003             JUNCTION     0.000    0.000     0  00:00           0           0       0.000 gal
  23815004             JUNCTION     0.000    0.000     0  00:00           0           0       0.000 gal
  23815005             JUNCTION     0.000    0.000     0  00:00           0           0       0.000 gal
  23815008             JUNCTION     0.000    0.000     0  00:00           0           0       0.000 gal
  23815009             JUNCTION     0.000    0.000     0  00:00           0           0       0.000 gal
  23815010             JUNCTION     0.000    0.000     0  00:00           0           0       0.000 gal
  23815014             JUNCTION     0.000    0.000     0  00:00           0           0       0.000 gal
  23815015             JUNCTION     0.000    0.000     0  00:00           0           0       0.000 gal
  23815016             JUNCTION     0.000    0.000     0  00:00           0           0       0.000 gal
  23815017             JUNCTION     0.000    0.000     0  00:00           0           0       0.000 gal
  23815018             JUNCTION     0.000    0.000     0  00:00           0           0       0.000 gal
  23815019             JUNCTION     0.000    0.000     0  00:00           0           0       0.000 gal
  23815020             JUNCTION     0.000    0.000     0  00:00           0           0       0.000 gal
  23815021             JUNCTION     0.000    0.000     0  00:00           0           0       0.000 gal
  23815022             JUNCTION     0.000    0.000     0  00:00           0           0       0.000 gal
  23815023             JUNCTION     0.000    0.000     0  00:00           0           0       0.000 gal
  23815024             JUNCTION     0.000    0.000     0  00:00           0           0       0.000 gal
  23815025             JUNCTION     0.000    0.000     0  00:00           0           0       0.000 gal
  23815026             JUNCTION     0.000    0.000     0  00:00           0           0       0.000 gal
  23815029             JUNCTION     0.000    0.000     0  00:00           0           0       0.000 gal
  23815030             JUNCTION     0.000    0.000     0  00:00           0           0       0.000 gal
  23815031             JUNCTION     0.000    0.000     0  00:00           0           0       0.000 gal
  23815032             JUNCTION     0.000    0.000     0  00:00           0           0       0.000 gal
  23815033             JUNCTION     0.000    0.000     0  00:00           0           0       0.000 gal
  23815038             JUNCTION     0.000    0.000     0  00:00           0           0       0.000 gal
  23816003             JUNCTION     0.000    0.000     0  00:00           0           0       0.000 gal
  23816006             JUNCTION     0.000    0.000     0  00:00           0           0       0.000 gal
  23816011             JUNCTION     0.000    0.000     0  00:00           0           0       0.000 gal
  23816014             JUNCTION     0.000    0.000     0  00:00           0           0       0.000 gal
  23816015             JUNCTION     0.000    0.000     0  00:00           0           0       0.000 gal
  23816016             JUNCTION     0.000    0.000     0  00:00           0           0       0.000 gal
  23816017             JUNCTION     0.000    0.000     0  00:00           0           0       0.000 gal
  23816018             JUNCTION     0.000    0.000     0  00:00           0           0       0.000 gal
  23816036             JUNCTION     0.000    0.000     0  00:00           0           0       0.000 gal
  23816037             JUNCTION     0.000    0.000     0  00:00           0           0       0.000 gal
  23916007             JUNCTION     0.000    0.000     0  00:00           0           0       0.000 gal
  23916008             JUNCTION     0.000    0.000     0  00:00           0           0       0.000 gal
  23916014             JUNCTION     0.000    0.000     0  00:00           0           0       0.000 gal
  23916015             JUNCTION     0.000    0.000     0  00:00           0           0       0.000 gal
  23916016             JUNCTION     0.000    0.000     0  00:00           0           0       0.000 gal
  23916017             JUNCTION     0.000    0.000     0  00:00           0           0       0.000 gal
  23916025             JUNCTION     0.000    0.000     0  00:00           0           0       0.000 gal
  23916026             JUNCTION     0.000    0.000     0  00:00           0           0       0.000 gal
  23916027             JUNCTION     0.000    0.000     0  00:00           0           0       0.000 gal
  23916003             OUTFALL      0.000    0.000     0  00:00           0           0       0.000 gal
  
  
  **********************
  Node Surcharge Summary
  **********************
  
  No nodes were surcharged.
  
  
  *********************
  Node Flooding Summary
  *********************
  
  No nodes were flooded.
  
  
  ***********************
  Outfall Loading Summary
  ***********************
  
  -----------------------------------------------------------
                         Flow       Avg       Max       Total
                         Freq      Flow      Flow      Volume
  Outfall Node           Pcnt       MGD       MGD    10^6 gal
  -----------------------------------------------------------
  23916003               0.00     0.000     0.000       0.000
  -----------------------------------------------------------
  System                 0.00     0.000     0.000       0.000
  
  
  ********************
  Link Flow Summary
  ********************
  
  -----------------------------------------------------------------------------
                                 Maximum  Time of Max   Maximum    Max/    Max/
                                  |Flow|   Occurrence   |Veloc|    Full    Full
  Link                 Type          MGD  days hr:min    ft/sec    Flow   Depth
  -----------------------------------------------------------------------------
  20704016-20704017    CONDUIT     0.000     0  00:00      0.00    0.00    0.00
  20704017-20704018    CONDUIT     0.000     0  00:00      0.00    0.00    0.00
  20704018-20704025    CONDUIT     0.000     0  00:00      0.00    0.00    0.00
  20704025-23916025    CONDUIT     0.000     0  00:00      0.00    0.00    0.00
  20712009-20712010    CONDUIT     0.000     0  00:00      0.00    0.00    0.00
  20712010-20712011    CONDUIT     0.000     0  00:00      0.00    0.00    0.00
  20712011-23809003    CONDUIT     0.000     0  00:00      0.00    0.00    0.00
  20713008-23816017    CONDUIT     0.000     0  00:00      0.00    0.00    0.00
  23701001-23701040    CONDUIT     0.000     0  00:00      0.00    0.00    0.00
  23701005-23701001    CONDUIT     0.000     0  00:00      0.00    0.00    0.00
  23701006-23701005    CONDUIT     0.000     0  00:00      0.00    0.00    0.00
  23701007-23701006    CONDUIT     0.000     0  00:00      0.00    0.00    0.00
  23701008-23701007    CONDUIT     0.000     0  00:00      0.00    0.00    0.00
  23701009-23701008    CONDUIT     0.000     0  00:00      0.00    0.00    0.00
  23701010-23701009    CONDUIT     0.000     0  00:00      0.00    0.00    0.00
  23701011-23701010    CONDUIT     0.000     0  00:00      0.00    0.00    0.00
  23701016-23701032    CONDUIT     0.000     0  00:00      0.00    0.00    0.00
  23701017-23701018    CONDUIT     0.000     0  00:00      0.00    0.00    0.00
  23701018-23701019    CONDUIT     0.000     0  00:00      0.00    0.00    0.00
  23701019-23701006    CONDUIT     0.000     0  00:00      0.00    0.00    0.00
  23701023-23701009    CONDUIT     0.000     0  00:00      0.00    0.00    0.00
  23701029-23701011    CONDUIT     0.000     0  00:00      0.00    0.00    0.00
  23701032-23701035    CONDUIT     0.000     0  00:00      0.00    0.00    0.00
  23701034-23816018    CONDUIT     0.000     0  00:00      0.00    0.00    0.00
  23701035-23701005    CONDUIT     0.000     0  00:00      0.00    0.00    0.00
  23701040-23816016    CONDUIT     0.000     0  00:00      0.00    0.00    0.00
  23702010-23815024    CONDUIT     0.000     0  00:00      0.00    0.00    0.00
  23702011-23702010    CONDUIT     0.000     0  00:00      0.00    0.00    0.00
  23702013-23815017    CONDUIT     0.000     0  00:00      0.00    0.00    0.00
  23702014-23702013    CONDUIT     0.000     0  00:00      0.00    0.00    0.00
  23702015-23702014    CONDUIT     0.000     0  00:00      0.00    0.00    0.00
  23702026-23702052    CONDUIT     0.000     0  00:00      0.00    0.00    0.00
  23807002-23808032    CONDUIT     0.000     0  00:00      0.00    0.00    0.00
  23807003-23807002    CONDUIT     0.000     0  00:00      0.00    0.00    0.00
  23807004-23807003    CONDUIT     0.000     0  00:00      0.00    0.00    0.00
  23702027-23702026    CONDUIT     0.000     0  00:00      0.00    0.00    0.00
  23702028-23702027    CONDUIT     0.000     0  00:00      0.00    0.00    0.00
  23702029-23702028    CONDUIT     0.000     0  00:00      0.00    0.00    0.00
  23702030-23702026    CONDUIT     0.000     0  00:00      0.00    0.00    0.00
  23702031-23702030    CONDUIT     0.000     0  00:00      0.00    0.00    0.00
  23702032-23702031    CONDUIT     0.000     0  00:00      0.00    0.00    0.00
  23702036-23702032    CONDUIT     0.000     0  00:00      0.00    0.00    0.00
  23702037-23702036    CONDUIT     0.000     0  00:00      0.00    0.00    0.00
  23702038-23702036    CONDUIT     0.000     0  00:00      0.00    0.00    0.00
  23702039-23702038    CONDUIT     0.000     0  00:00      0.00    0.00    0.00
  23702040-23702039    CONDUIT     0.000     0  00:00      0.00    0.00    0.00
  23702045-23815017    CONDUIT     0.000     0  00:00      0.00    0.00    0.00
  23702051-23702013    CONDUIT     0.000     0  00:00      0.00    0.00    0.00
  23702052-23702051    CONDUIT     0.000     0  00:00      0.00    0.00    0.00
  23703001-23702029    CONDUIT     0.000     0  00:00      0.00    0.00    0.00
  23703002-23703001    CONDUIT     0.000     0  00:00      0.00    0.00    0.00
  23703003-23703002    CONDUIT     0.000     0  00:00      0.00    0.00    0.00
  23707003-23707004    CONDUIT     0.000     0  00:00      0.00    0.00    0.00
  23707004-23707005    CONDUIT     0.000     0  00:00      0.00    0.00    0.00
  23707005-23707006    CONDUIT     0.000     0  00:00      0.00    0.00    0.00
  23707006-23702037    CONDUIT     0.000     0  00:00      0.00    0.00    0.00
  23707007-23707006    CONDUIT     0.000     0  00:00      0.00    0.00    0.00
  23707008-23707003    CONDUIT     0.000     0  00:00      0.00    0.00    0.00
  23707011-23707008    CONDUIT     0.000     0  00:00      0.00    0.00    0.00
  23707014-23702040    CONDUIT     0.000     0  00:00      0.00    0.00    0.00
  23707015-23707014    CONDUIT     0.000     0  00:00      0.00    0.00    0.00
  23708023-23707008    CONDUIT     0.000     0  00:00      0.00    0.00    0.00
  23708024-23708023    CONDUIT     0.000     0  00:00      0.00    0.00    0.00
  23708025-23708023    CONDUIT     0.000     0  00:00      0.00    0.00    0.00
  23708026-23708023    CONDUIT     0.000     0  00:00      0.00    0.00    0.00
  23708026-23708025    CONDUIT     0.000     0  00:00      0.00    0.00    0.00
  23708027-23708026    CONDUIT     0.000     0  00:00      0.00    0.00    0.00
  23708030-23708027    CONDUIT     0.000     0  00:00      0.00    0.00    0.00
  23801001-23801003    CONDUIT     0.000     0  00:00      0.00    0.00    0.00
  23801003-23916026    CONDUIT     0.000     0  00:00      0.00    0.00    0.00
  23801005-23801003    CONDUIT     0.000     0  00:00      0.00    0.00    0.00
  23801007-23801008    CONDUIT     0.000     0  00:00      0.00    0.00    0.00
  23801008-23801009    CONDUIT     0.000     0  00:00      0.00    0.00    0.00
  23801009-23801010    CONDUIT     0.000     0  00:00      0.00    0.00    0.00
  23801010-23801011    CONDUIT     0.000     0  00:00      0.00    0.00    0.00
  23801011-23801012    CONDUIT     0.000     0  00:00      0.00    0.00    0.00
  23801012-23801013    CONDUIT     0.000     0  00:00      0.00    0.00    0.00
  23801013-23801032    CONDUIT     0.000     0  00:00      0.00    0.00    0.00
  23801014-23801015    CONDUIT     0.000     0  00:00      0.00    0.00    0.00
  23801015-23801016    CONDUIT     0.000     0  00:00      0.00    0.00    0.00
  23801016-23801017    CONDUIT     0.000     0  00:00      0.00    0.00    0.00
  23801017-23801018    CONDUIT     0.000     0  00:00      0.00    0.00    0.00
  23801018-23801013    CONDUIT     0.000     0  00:00      0.00    0.00    0.00
  23801020-23801022    CONDUIT     0.000     0  00:00      0.00    0.00    0.00
  23801022-23801025    CONDUIT     0.000     0  00:00      0.00    0.00    0.00
  23801025-23801026    CONDUIT     0.000     0  00:00      0.00    0.00    0.00
  23801026-23801027    CONDUIT     0.000     0  00:00      0.00    0.00    0.00
  23801027-23801018    CONDUIT     0.000     0  00:00      0.00    0.00    0.00
  23801028-23801027    CONDUIT     0.000     0  00:00      0.00    0.00    0.00
  23801029-23801028    CONDUIT     0.000     0  00:00      0.00    0.00    0.00
  23801032-23801005    CONDUIT     0.000     0  00:00      0.00    0.00    0.00
  23802012-23807017    CONDUIT     0.000     0  00:00      0.00    0.00    0.00
  23807011-23807028    CONDUIT     0.000     0  00:00      0.00    0.00    0.00
  23807012-23807022    CONDUIT     0.000     0  00:00      0.00    0.00    0.00
  23807013-23807012    CONDUIT     0.000     0  00:00      0.00    0.00    0.00
  23807017-23807018    CONDUIT     0.000     0  00:00      0.00    0.00    0.00
  23807018-23807037    CONDUIT     0.000     0  00:00      0.00    0.00    0.00
  23807020-23807022    CONDUIT     0.000     0  00:00      0.00    0.00    0.00
  23807022-23807011    CONDUIT     0.000     0  00:00      0.00    0.00    0.00
  23807028-23807002    CONDUIT     0.000     0  00:00      0.00    0.00    0.00
  23807031-23807012    CONDUIT     0.000     0  00:00      0.00    0.00    0.00
  23807037-23807020    CONDUIT     0.000     0  00:00      0.00    0.00    0.00
  23808005-23808006    CONDUIT     0.000     0  00:00      0.00    0.00    0.00
  23808006-23808031    CONDUIT     0.000     0  00:00      0.00    0.00    0.00
  23808012-23808022    CONDUIT     0.000     0  00:00      0.00    0.00    0.00
  23808013-23808030    CONDUIT     0.000     0  00:00      0.00    0.00    0.00
  23808016-23808017    CONDUIT     0.000     0  00:00      0.00    0.00    0.00
  23808017-23808018    CONDUIT     0.000     0  00:00      0.00    0.00    0.00
  23808018-23808023    CONDUIT     0.000     0  00:00      0.00    0.00    0.00
  23808019-23801028    CONDUIT     0.000     0  00:00      0.00    0.00    0.00
  23808020-23808019    CONDUIT     0.000     0  00:00      0.00    0.00    0.00
  23808021-23808020    CONDUIT     0.000     0  00:00      0.00    0.00    0.00
  23808022-23808031    CONDUIT     0.000     0  00:00      0.00    0.00    0.00
  23808023-23808022    CONDUIT     0.000     0  00:00      0.00    0.00    0.00
  23808024-23808023    CONDUIT     0.000     0  00:00      0.00    0.00    0.00
  23808025-23808024    CONDUIT     0.000     0  00:00      0.00    0.00    0.00
  23808030-23809003    CONDUIT     0.000     0  00:00      0.00    0.00    0.00
  23808031-23808021    CONDUIT     0.000     0  00:00      0.00    0.00    0.00
  23808032-23808019    CONDUIT     0.000     0  00:00      0.00    0.00    0.00
  23809002-23808016    CONDUIT     0.000     0  00:00      0.00    0.00    0.00
  23809003-23809004    CONDUIT     0.000     0  00:00      0.00    0.00    0.00
  23809004-23809005    CONDUIT     0.000     0  00:00      0.00    0.00    0.00
  23809005-23809006    CONDUIT     0.000     0  00:00      0.00    0.00    0.00
  23809006-23809049    CONDUIT     0.000     0  00:00      0.00    0.00    0.00
  23809013-23809049    CONDUIT     0.000     0  00:00      0.00    0.00    0.00
  23809014-23809042    CONDUIT     0.000     0  00:00      0.00    0.00    0.00
  23809015-23809019    CONDUIT     0.000     0  00:00      0.00    0.00    0.00
  23809019-23809014    CONDUIT     0.000     0  00:00      0.00    0.00    0.00
  23809026-23808025    CONDUIT     0.000     0  00:00      0.00    0.00    0.00
  23809027-23809026    CONDUIT     0.000     0  00:00      0.00    0.00    0.00
  23809028-23809027    CONDUIT     0.000     0  00:00      0.00    0.00    0.00
  23809042-23809013    CONDUIT     0.000     0  00:00      0.00    0.00    0.00
  23809049-23809050    CONDUIT     0.000     0  00:00      0.00    0.00    0.00
  23809050-23809002    CONDUIT     0.000     0  00:00      0.00    0.00    0.00
  23809053-23809015    CONDUIT     0.000     0  00:00      0.00    0.00    0.00
  23810003-23810010    CONDUIT     0.000     0  00:00      0.00    0.00    0.00
  23810008-23807013    CONDUIT     0.000     0  00:00      0.00    0.00    0.00
  23810009-23810008    CONDUIT     0.000     0  00:00      0.00    0.00    0.00
  23810010-23810009    CONDUIT     0.000     0  00:00      0.00    0.00    0.00
  23810011-23810010    CONDUIT     0.000     0  00:00      0.00    0.00    0.00
  23810012-23810011    CONDUIT     0.000     0  00:00      0.00    0.00    0.00
  23810013-23810012    CONDUIT     0.000     0  00:00      0.00    0.00    0.00
  23810014-23810032    CONDUIT     0.000     0  00:00      0.00    0.00    0.00
  23810015-23810014    CONDUIT     0.000     0  00:00      0.00    0.00    0.00
  23810016-23810015    CONDUIT     0.000     0  00:00      0.00    0.00    0.00
  23810017-23810016    CONDUIT     0.000     0  00:00      0.00    0.00    0.00
  23810018-23810017    CONDUIT     0.000     0  00:00      0.00    0.00    0.00
  23810019-23810014    CONDUIT     0.000     0  00:00      0.00    0.00    0.00
  23810022-23810031    CONDUIT     0.000     0  00:00      0.00    0.00    0.00
  23810023-23810033    CONDUIT     0.000     0  00:00      0.00    0.00    0.00
  23810024-23810033    CONDUIT     0.000     0  00:00      0.00    0.00    0.00
  23810025-23810024    CONDUIT     0.000     0  00:00      0.00    0.00    0.00
  23810026-23810025    CONDUIT     0.000     0  00:00      0.00    0.00    0.00
  23810031-23810019    CONDUIT     0.000     0  00:00      0.00    0.00    0.00
  23810032-23810009    CONDUIT     0.000     0  00:00      0.00    0.00    0.00
  23810033-23810022    CONDUIT     0.000     0  00:00      0.00    0.00    0.00
  23811003-23810018    CONDUIT     0.000     0  00:00      0.00    0.00    0.00
  23811004-23811003    CONDUIT     0.000     0  00:00      0.00    0.00    0.00
  23811005-23811004    CONDUIT     0.000     0  00:00      0.00    0.00    0.00
  23811028-23815026    CONDUIT     0.000     0  00:00      0.00    0.00    0.00
  23811029-23811028    CONDUIT     0.000     0  00:00      0.00    0.00    0.00
  23814006-23814010    CONDUIT     0.000     0  00:00      0.00    0.00    0.00
  23814009-23815029    CONDUIT     0.000     0  00:00      0.00    0.00    0.00
  23814010-23814009    CONDUIT     0.000     0  00:00      0.00    0.00    0.00
  23815002-23815008    CONDUIT     0.000     0  00:00      0.00    0.00    0.00
  23815003-23815002    CONDUIT     0.000     0  00:00      0.00    0.00    0.00
  23815004-23815003    CONDUIT     0.000     0  00:00      0.00    0.00    0.00
  23815005-23815004    CONDUIT     0.000     0  00:00      0.00    0.00    0.00
  23815008-23815009    CONDUIT     0.000     0  00:00      0.00    0.00    0.00
  23815009-23815010    CONDUIT     0.000     0  00:00      0.00    0.00    0.00
  23815010-23810013    CONDUIT     0.000     0  00:00      0.00    0.00    0.00
  23815014-23810013    CONDUIT     0.000     0  00:00      0.00    0.00    0.00
  23815015-23815014    CONDUIT     0.000     0  00:00      0.00    0.00    0.00
  23815016-23815015    CONDUIT     0.000     0  00:00      0.00    0.00    0.00
  23815017-23815016    CONDUIT     0.000     0  00:00      0.00    0.00    0.00
  23815018-23815019    CONDUIT     0.000     0  00:00      0.00    0.00    0.00
  23815019-23815038    CONDUIT     0.000     0  00:00      0.00    0.00    0.00
  23815020-23815038    CONDUIT     0.000     0  00:00      0.00    0.00    0.00
  23815021-23815020    CONDUIT     0.000     0  00:00      0.00    0.00    0.00
  23815022-23815021    CONDUIT     0.000     0  00:00      0.00    0.00    0.00
  23815023-23815022    CONDUIT     0.000     0  00:00      0.00    0.00    0.00
  23815024-23815023    CONDUIT     0.000     0  00:00      0.00    0.00    0.00
  23815025-23810026    CONDUIT     0.000     0  00:00      0.00    0.00    0.00
  23815026-23815025    CONDUIT     0.000     0  00:00      0.00    0.00    0.00
  23815029-23815030    CONDUIT     0.000     0  00:00      0.00    0.00    0.00
  23815030-23815031    CONDUIT     0.000     0  00:00      0.00    0.00    0.00
  23815031-23815032    CONDUIT     0.000     0  00:00      0.00    0.00    0.00
  23815032-23815033    CONDUIT     0.000     0  00:00      0.00    0.00    0.00
  23815033-23815024    CONDUIT     0.000     0  00:00      0.00    0.00    0.00
  23815038-23810023    CONDUIT     0.000     0  00:00      0.00    0.00    0.00
  23816003-23809053    CONDUIT     0.000     0  00:00      0.00    0.00    0.00
  23816006-23816003    CONDUIT     0.000     0  00:00      0.00    0.00    0.00
  23816011-23816006    CONDUIT     0.000     0  00:00      0.00    0.00    0.00
  23816014-23816036    CONDUIT     0.000     0  00:00      0.00    0.00    0.00
  23816015-23816014    CONDUIT     0.000     0  00:00      0.00    0.00    0.00
  23816016-23816015    CONDUIT     0.000     0  00:00      0.00    0.00    0.00
  23816017-23816014    CONDUIT     0.000     0  00:00      0.00    0.00    0.00
  23816018-23816016    CONDUIT     0.000     0  00:00      0.00    0.00    0.00
  23816036-23816037    CONDUIT     0.000     0  00:00      0.00    0.00    0.00
  23816037-23816011    CONDUIT     0.000     0  00:00      0.00    0.00    0.00
  23916007-23916003    CONDUIT     0.000     0  00:00      0.00    0.00    0.00
  23916008-23916007    CONDUIT     0.000     0  00:00      0.00    0.00    0.00
  23916014-23916015    CONDUIT     0.000     0  00:00      0.00    0.00    0.00
  23916015-23916007    CONDUIT     0.000     0  00:00      0.00    0.00    0.00
  23916016-23916015    CONDUIT     0.000     0  00:00      0.00    0.00    0.00
  23916017-23916016    CONDUIT     0.000     0  00:00      0.00    0.00    0.00
  23916025-23916026    CONDUIT     0.000     0  00:00      0.00    0.00    0.00
  23916026-23916015    CONDUIT     0.000     0  00:00      0.00    0.00    0.00
  23916027-23916026    CONDUIT     0.000     0  00:00      0.00    0.00    0.00
  
  
  ***************************
  Flow Classification Summary
  ***************************
  
  -------------------------------------------------------------------------------------
                      Adjusted    ---------- Fraction of Time in Flow Class ---------- 
                       /Actual         Up    Down  Sub   Sup   Up    Down  Norm  Inlet 
  Conduit               Length    Dry  Dry   Dry   Crit  Crit  Crit  Crit  Ltd   Ctrl  
  -------------------------------------------------------------------------------------
  20704016-20704017       1.00   1.00  0.00  0.00  0.00  0.00  0.00  0.00  0.00  0.00
  20704017-20704018       1.00   1.00  0.00  0.00  0.00  0.00  0.00  0.00  0.00  0.00
  20704018-20704025       1.00   1.00  0.00  0.00  0.00  0.00  0.00  0.00  0.00  0.00
  20704025-23916025       1.00   1.00  0.00  0.00  0.00  0.00  0.00  0.00  0.00  0.00
  20712009-20712010       1.00   1.00  0.00  0.00  0.00  0.00  0.00  0.00  0.00  0.00
  20712010-20712011       1.00   1.00  0.00  0.00  0.00  0.00  0.00  0.00  0.00  0.00
  20712011-23809003       1.00   1.00  0.00  0.00  0.00  0.00  0.00  0.00  0.00  0.00
  20713008-23816017       1.00   1.00  0.00  0.00  0.00  0.00  0.00  0.00  0.00  0.00
  23701001-23701040       4.53   1.00  0.00  0.00  0.00  0.00  0.00  0.00  0.00  0.00
  23701005-23701001       1.00   1.00  0.00  0.00  0.00  0.00  0.00  0.00  0.00  0.00
  23701006-23701005       1.12   1.00  0.00  0.00  0.00  0.00  0.00  0.00  0.00  0.00
  23701007-23701006       1.92   1.00  0.00  0.00  0.00  0.00  0.00  0.00  0.00  0.00
  23701008-23701007       1.00   1.00  0.00  0.00  0.00  0.00  0.00  0.00  0.00  0.00
  23701009-23701008       1.00   1.00  0.00  0.00  0.00  0.00  0.00  0.00  0.00  0.00
  23701010-23701009       3.36   1.00  0.00  0.00  0.00  0.00  0.00  0.00  0.00  0.00
  23701011-23701010       1.00   1.00  0.00  0.00  0.00  0.00  0.00  0.00  0.00  0.00
  23701016-23701032       5.74   1.00  0.00  0.00  0.00  0.00  0.00  0.00  0.00  0.00
  23701017-23701018       1.00   1.00  0.00  0.00  0.00  0.00  0.00  0.00  0.00  0.00
  23701018-23701019       1.00   1.00  0.00  0.00  0.00  0.00  0.00  0.00  0.00  0.00
  23701019-23701006       5.95   1.00  0.00  0.00  0.00  0.00  0.00  0.00  0.00  0.00
  23701023-23701009       1.00   1.00  0.00  0.00  0.00  0.00  0.00  0.00  0.00  0.00
  23701029-23701011       1.00   1.00  0.00  0.00  0.00  0.00  0.00  0.00  0.00  0.00
  23701032-23701035       1.00   1.00  0.00  0.00  0.00  0.00  0.00  0.00  0.00  0.00
  23701034-23816018       1.00   1.00  0.00  0.00  0.00  0.00  0.00  0.00  0.00  0.00
  23701035-23701005       6.37   1.00  0.00  0.00  0.00  0.00  0.00  0.00  0.00  0.00
  23701040-23816016       1.00   1.00  0.00  0.00  0.00  0.00  0.00  0.00  0.00  0.00
  23702010-23815024       1.00   1.00  0.00  0.00  0.00  0.00  0.00  0.00  0.00  0.00
  23702011-23702010       1.45   1.00  0.00  0.00  0.00  0.00  0.00  0.00  0.00  0.00
  23702013-23815017       1.00   1.00  0.00  0.00  0.00  0.00  0.00  0.00  0.00  0.00
  23702014-23702013       3.62   1.00  0.00  0.00  0.00  0.00  0.00  0.00  0.00  0.00
  23702015-23702014       1.10   1.00  0.00  0.00  0.00  0.00  0.00  0.00  0.00  0.00
  23702026-23702052       1.06   1.00  0.00  0.00  0.00  0.00  0.00  0.00  0.00  0.00
  23807002-23808032       1.25   1.00  0.00  0.00  0.00  0.00  0.00  0.00  0.00  0.00
  23807003-23807002       4.44   1.00  0.00  0.00  0.00  0.00  0.00  0.00  0.00  0.00
  23807004-23807003       1.78   1.00  0.00  0.00  0.00  0.00  0.00  0.00  0.00  0.00
  23702027-23702026       3.12   1.00  0.00  0.00  0.00  0.00  0.00  0.00  0.00  0.00
  23702028-23702027       1.00   1.00  0.00  0.00  0.00  0.00  0.00  0.00  0.00  0.00
  23702029-23702028       1.00   1.00  0.00  0.00  0.00  0.00  0.00  0.00  0.00  0.00
  23702030-23702026       6.59   1.00  0.00  0.00  0.00  0.00  0.00  0.00  0.00  0.00
  23702031-23702030       1.00   1.00  0.00  0.00  0.00  0.00  0.00  0.00  0.00  0.00
  23702032-23702031       1.43   1.00  0.00  0.00  0.00  0.00  0.00  0.00  0.00  0.00
  23702036-23702032       2.38   1.00  0.00  0.00  0.00  0.00  0.00  0.00  0.00  0.00
  23702037-23702036       1.00   1.00  0.00  0.00  0.00  0.00  0.00  0.00  0.00  0.00
  23702038-23702036       1.00   1.00  0.00  0.00  0.00  0.00  0.00  0.00  0.00  0.00
  23702039-23702038       1.51   1.00  0.00  0.00  0.00  0.00  0.00  0.00  0.00  0.00
  23702040-23702039       1.05   1.00  0.00  0.00  0.00  0.00  0.00  0.00  0.00  0.00
  23702045-23815017       4.11   1.00  0.00  0.00  0.00  0.00  0.00  0.00  0.00  0.00
  23702051-23702013      11.80   1.00  0.00  0.00  0.00  0.00  0.00  0.00  0.00  0.00
  23702052-23702051      12.73   1.00  0.00  0.00  0.00  0.00  0.00  0.00  0.00  0.00
  23703001-23702029       1.00   1.00  0.00  0.00  0.00  0.00  0.00  0.00  0.00  0.00
  23703002-23703001       1.00   1.00  0.00  0.00  0.00  0.00  0.00  0.00  0.00  0.00
  23703003-23703002       1.00   1.00  0.00  0.00  0.00  0.00  0.00  0.00  0.00  0.00
  23707003-23707004       1.00   1.00  0.00  0.00  0.00  0.00  0.00  0.00  0.00  0.00
  23707004-23707005       1.00   1.00  0.00  0.00  0.00  0.00  0.00  0.00  0.00  0.00
  23707005-23707006       1.21   1.00  0.00  0.00  0.00  0.00  0.00  0.00  0.00  0.00
  23707006-23702037       1.00   1.00  0.00  0.00  0.00  0.00  0.00  0.00  0.00  0.00
  23707007-23707006       1.00   1.00  0.00  0.00  0.00  0.00  0.00  0.00  0.00  0.00
  23707008-23707003       1.00   1.00  0.00  0.00  0.00  0.00  0.00  0.00  0.00  0.00
  23707011-23707008       1.00   1.00  0.00  0.00  0.00  0.00  0.00  0.00  0.00  0.00
  23707014-23702040       1.00   1.00  0.00  0.00  0.00  0.00  0.00  0.00  0.00  0.00
  23707015-23707014       1.00   1.00  0.00  0.00  0.00  0.00  0.00  0.00  0.00  0.00
  23708023-23707008       1.00   1.00  0.00  0.00  0.00  0.00  0.00  0.00  0.00  0.00
  23708024-23708023       1.73   1.00  0.00  0.00  0.00  0.00  0.00  0.00  0.00  0.00
  23708025-23708023       2.80   1.00  0.00  0.00  0.00  0.00  0.00  0.00  0.00  0.00
  23708026-23708023       1.82   1.00  0.00  0.00  0.00  0.00  0.00  0.00  0.00  0.00
  23708026-23708025       5.16   1.00  0.00  0.00  0.00  0.00  0.00  0.00  0.00  0.00
  23708027-23708026       1.00   1.00  0.00  0.00  0.00  0.00  0.00  0.00  0.00  0.00
  23708030-23708027       1.00   1.00  0.00  0.00  0.00  0.00  0.00  0.00  0.00  0.00
  23801001-23801003       1.00   1.00  0.00  0.00  0.00  0.00  0.00  0.00  0.00  0.00
  23801003-23916026       1.00   1.00  0.00  0.00  0.00  0.00  0.00  0.00  0.00  0.00
  23801005-23801003       1.05   1.00  0.00  0.00  0.00  0.00  0.00  0.00  0.00  0.00
  23801007-23801008       2.00   1.00  0.00  0.00  0.00  0.00  0.00  0.00  0.00  0.00
  23801008-23801009       1.00   1.00  0.00  0.00  0.00  0.00  0.00  0.00  0.00  0.00
  23801009-23801010       1.00   1.00  0.00  0.00  0.00  0.00  0.00  0.00  0.00  0.00
  23801010-23801011       1.00   1.00  0.00  0.00  0.00  0.00  0.00  0.00  0.00  0.00
  23801011-23801012       1.00   1.00  0.00  0.00  0.00  0.00  0.00  0.00  0.00  0.00
  23801012-23801013       1.05   1.00  0.00  0.00  0.00  0.00  0.00  0.00  0.00  0.00
  23801013-23801032       1.00   1.00  0.00  0.00  0.00  0.00  0.00  0.00  0.00  0.00
  23801014-23801015       1.00   1.00  0.00  0.00  0.00  0.00  0.00  0.00  0.00  0.00
  23801015-23801016       1.00   1.00  0.00  0.00  0.00  0.00  0.00  0.00  0.00  0.00
  23801016-23801017       1.00   1.00  0.00  0.00  0.00  0.00  0.00  0.00  0.00  0.00
  23801017-23801018       8.79   1.00  0.00  0.00  0.00  0.00  0.00  0.00  0.00  0.00
  23801018-23801013       1.00   1.00  0.00  0.00  0.00  0.00  0.00  0.00  0.00  0.00
  23801020-23801022       1.00   1.00  0.00  0.00  0.00  0.00  0.00  0.00  0.00  0.00
  23801022-23801025       1.00   1.00  0.00  0.00  0.00  0.00  0.00  0.00  0.00  0.00
  23801025-23801026       1.00   1.00  0.00  0.00  0.00  0.00  0.00  0.00  0.00  0.00
  23801026-23801027       1.52   1.00  0.00  0.00  0.00  0.00  0.00  0.00  0.00  0.00
  23801027-23801018       1.38   1.00  0.00  0.00  0.00  0.00  0.00  0.00  0.00  0.00
  23801028-23801027       1.00   1.00  0.00  0.00  0.00  0.00  0.00  0.00  0.00  0.00
  23801029-23801028       1.00   1.00  0.00  0.00  0.00  0.00  0.00  0.00  0.00  0.00
  23801032-23801005       3.60   1.00  0.00  0.00  0.00  0.00  0.00  0.00  0.00  0.00
  23802012-23807017       1.00   1.00  0.00  0.00  0.00  0.00  0.00  0.00  0.00  0.00
  23807011-23807028       1.00   1.00  0.00  0.00  0.00  0.00  0.00  0.00  0.00  0.00
  23807012-23807022       1.00   1.00  0.00  0.00  0.00  0.00  0.00  0.00  0.00  0.00
  23807013-23807012       1.00   1.00  0.00  0.00  0.00  0.00  0.00  0.00  0.00  0.00
  23807017-23807018       1.00   1.00  0.00  0.00  0.00  0.00  0.00  0.00  0.00  0.00
  23807018-23807037       1.22   1.00  0.00  0.00  0.00  0.00  0.00  0.00  0.00  0.00
  23807020-23807022       2.77   1.00  0.00  0.00  0.00  0.00  0.00  0.00  0.00  0.00
  23807022-23807011       1.00   1.00  0.00  0.00  0.00  0.00  0.00  0.00  0.00  0.00
  23807028-23807002       1.00   1.00  0.00  0.00  0.00  0.00  0.00  0.00  0.00  0.00
  23807031-23807012       1.42   1.00  0.00  0.00  0.00  0.00  0.00  0.00  0.00  0.00
  23807037-23807020       3.06   1.00  0.00  0.00  0.00  0.00  0.00  0.00  0.00  0.00
  23808005-23808006       1.00   1.00  0.00  0.00  0.00  0.00  0.00  0.00  0.00  0.00
  23808006-23808031       1.00   1.00  0.00  0.00  0.00  0.00  0.00  0.00  0.00  0.00
  23808012-23808022       2.61   1.00  0.00  0.00  0.00  0.00  0.00  0.00  0.00  0.00
  23808013-23808030       1.00   1.00  0.00  0.00  0.00  0.00  0.00  0.00  0.00  0.00
  23808016-23808017       3.60   1.00  0.00  0.00  0.00  0.00  0.00  0.00  0.00  0.00
  23808017-23808018       1.00   1.00  0.00  0.00  0.00  0.00  0.00  0.00  0.00  0.00
  23808018-23808023       1.00   1.00  0.00  0.00  0.00  0.00  0.00  0.00  0.00  0.00
  23808019-23801028       1.00   1.00  0.00  0.00  0.00  0.00  0.00  0.00  0.00  0.00
  23808020-23808019       2.04   1.00  0.00  0.00  0.00  0.00  0.00  0.00  0.00  0.00
  23808021-23808020       1.00   1.00  0.00  0.00  0.00  0.00  0.00  0.00  0.00  0.00
  23808022-23808031       1.00   1.00  0.00  0.00  0.00  0.00  0.00  0.00  0.00  0.00
  23808023-23808022       1.00   1.00  0.00  0.00  0.00  0.00  0.00  0.00  0.00  0.00
  23808024-23808023       4.11   1.00  0.00  0.00  0.00  0.00  0.00  0.00  0.00  0.00
  23808025-23808024       1.00   1.00  0.00  0.00  0.00  0.00  0.00  0.00  0.00  0.00
  23808030-23809003       1.00   1.00  0.00  0.00  0.00  0.00  0.00  0.00  0.00  0.00
  23808031-23808021       2.42   1.00  0.00  0.00  0.00  0.00  0.00  0.00  0.00  0.00
  23808032-23808019       1.00   1.00  0.00  0.00  0.00  0.00  0.00  0.00  0.00  0.00
  23809002-23808016       1.00   1.00  0.00  0.00  0.00  0.00  0.00  0.00  0.00  0.00
  23809003-23809004       1.00   1.00  0.00  0.00  0.00  0.00  0.00  0.00  0.00  0.00
  23809004-23809005       1.00   1.00  0.00  0.00  0.00  0.00  0.00  0.00  0.00  0.00
  23809005-23809006       2.93   1.00  0.00  0.00  0.00  0.00  0.00  0.00  0.00  0.00
  23809006-23809049       1.00   1.00  0.00  0.00  0.00  0.00  0.00  0.00  0.00  0.00
  23809013-23809049      14.56   1.00  0.00  0.00  0.00  0.00  0.00  0.00  0.00  0.00
  23809014-23809042       2.03   1.00  0.00  0.00  0.00  0.00  0.00  0.00  0.00  0.00
  23809015-23809019       1.00   1.00  0.00  0.00  0.00  0.00  0.00  0.00  0.00  0.00
  23809019-23809014       1.00   1.00  0.00  0.00  0.00  0.00  0.00  0.00  0.00  0.00
  23809026-23808025       1.00   1.00  0.00  0.00  0.00  0.00  0.00  0.00  0.00  0.00
  23809027-23809026       1.00   1.00  0.00  0.00  0.00  0.00  0.00  0.00  0.00  0.00
  23809028-23809027       1.00   1.00  0.00  0.00  0.00  0.00  0.00  0.00  0.00  0.00
  23809042-23809013       1.00   1.00  0.00  0.00  0.00  0.00  0.00  0.00  0.00  0.00
  23809049-23809050      26.32   1.00  0.00  0.00  0.00  0.00  0.00  0.00  0.00  0.00
  23809050-23809002       2.44   1.00  0.00  0.00  0.00  0.00  0.00  0.00  0.00  0.00
  23809053-23809015       1.00   1.00  0.00  0.00  0.00  0.00  0.00  0.00  0.00  0.00
  23810003-23810010       3.78   1.00  0.00  0.00  0.00  0.00  0.00  0.00  0.00  0.00
  23810008-23807013       1.00   1.00  0.00  0.00  0.00  0.00  0.00  0.00  0.00  0.00
  23810009-23810008       1.00   1.00  0.00  0.00  0.00  0.00  0.00  0.00  0.00  0.00
  23810010-23810009       3.76   1.00  0.00  0.00  0.00  0.00  0.00  0.00  0.00  0.00
  23810011-23810010       1.00   1.00  0.00  0.00  0.00  0.00  0.00  0.00  0.00  0.00
  23810012-23810011       1.00   1.00  0.00  0.00  0.00  0.00  0.00  0.00  0.00  0.00
  23810013-23810012       1.00   1.00  0.00  0.00  0.00  0.00  0.00  0.00  0.00  0.00
  23810014-23810032       1.54   1.00  0.00  0.00  0.00  0.00  0.00  0.00  0.00  0.00
  23810015-23810014       3.55   1.00  0.00  0.00  0.00  0.00  0.00  0.00  0.00  0.00
  23810016-23810015       1.00   1.00  0.00  0.00  0.00  0.00  0.00  0.00  0.00  0.00
  23810017-23810016       1.00   1.00  0.00  0.00  0.00  0.00  0.00  0.00  0.00  0.00
  23810018-23810017       1.00   1.00  0.00  0.00  0.00  0.00  0.00  0.00  0.00  0.00
  23810019-23810014       1.00   1.00  0.00  0.00  0.00  0.00  0.00  0.00  0.00  0.00
  23810022-23810031       3.11   1.00  0.00  0.00  0.00  0.00  0.00  0.00  0.00  0.00
  23810023-23810033       6.90   1.00  0.00  0.00  0.00  0.00  0.00  0.00  0.00  0.00
  23810024-23810033       6.46   1.00  0.00  0.00  0.00  0.00  0.00  0.00  0.00  0.00
  23810025-23810024       1.00   1.00  0.00  0.00  0.00  0.00  0.00  0.00  0.00  0.00
  23810026-23810025       2.34   1.00  0.00  0.00  0.00  0.00  0.00  0.00  0.00  0.00
  23810031-23810019       1.00   1.00  0.00  0.00  0.00  0.00  0.00  0.00  0.00  0.00
  23810032-23810009       1.10   1.00  0.00  0.00  0.00  0.00  0.00  0.00  0.00  0.00
  23810033-23810022       1.00   1.00  0.00  0.00  0.00  0.00  0.00  0.00  0.00  0.00
  23811003-23810018       1.00   1.00  0.00  0.00  0.00  0.00  0.00  0.00  0.00  0.00
  23811004-23811003       1.00   1.00  0.00  0.00  0.00  0.00  0.00  0.00  0.00  0.00
  23811005-23811004       1.00   1.00  0.00  0.00  0.00  0.00  0.00  0.00  0.00  0.00
  23811028-23815026       1.00   1.00  0.00  0.00  0.00  0.00  0.00  0.00  0.00  0.00
  23811029-23811028       1.00   1.00  0.00  0.00  0.00  0.00  0.00  0.00  0.00  0.00
  23814006-23814010       1.00   1.00  0.00  0.00  0.00  0.00  0.00  0.00  0.00  0.00
  23814009-23815029       1.00   1.00  0.00  0.00  0.00  0.00  0.00  0.00  0.00  0.00
  23814010-23814009       1.00   1.00  0.00  0.00  0.00  0.00  0.00  0.00  0.00  0.00
  23815002-23815008       1.65   1.00  0.00  0.00  0.00  0.00  0.00  0.00  0.00  0.00
  23815003-23815002       1.00   1.00  0.00  0.00  0.00  0.00  0.00  0.00  0.00  0.00
  23815004-23815003       1.00   1.00  0.00  0.00  0.00  0.00  0.00  0.00  0.00  0.00
  23815005-23815004       1.00   1.00  0.00  0.00  0.00  0.00  0.00  0.00  0.00  0.00
  23815008-23815009       1.00   1.00  0.00  0.00  0.00  0.00  0.00  0.00  0.00  0.00
  23815009-23815010       1.00   1.00  0.00  0.00  0.00  0.00  0.00  0.00  0.00  0.00
  23815010-23810013       3.09   1.00  0.00  0.00  0.00  0.00  0.00  0.00  0.00  0.00
  23815014-23810013       1.00   1.00  0.00  0.00  0.00  0.00  0.00  0.00  0.00  0.00
  23815015-23815014       1.00   1.00  0.00  0.00  0.00  0.00  0.00  0.00  0.00  0.00
  23815016-23815015       1.00   1.00  0.00  0.00  0.00  0.00  0.00  0.00  0.00  0.00
  23815017-23815016       1.00   1.00  0.00  0.00  0.00  0.00  0.00  0.00  0.00  0.00
  23815018-23815019       1.03   1.00  0.00  0.00  0.00  0.00  0.00  0.00  0.00  0.00
  23815019-23815038       2.04   1.00  0.00  0.00  0.00  0.00  0.00  0.00  0.00  0.00
  23815020-23815038       2.69   1.00  0.00  0.00  0.00  0.00  0.00  0.00  0.00  0.00
  23815021-23815020       1.00   1.00  0.00  0.00  0.00  0.00  0.00  0.00  0.00  0.00
  23815022-23815021       1.00   1.00  0.00  0.00  0.00  0.00  0.00  0.00  0.00  0.00
  23815023-23815022       1.00   1.00  0.00  0.00  0.00  0.00  0.00  0.00  0.00  0.00
  23815024-23815023       1.00   1.00  0.00  0.00  0.00  0.00  0.00  0.00  0.00  0.00
  23815025-23810026       1.00   1.00  0.00  0.00  0.00  0.00  0.00  0.00  0.00  0.00
  23815026-23815025       1.00   1.00  0.00  0.00  0.00  0.00  0.00  0.00  0.00  0.00
  23815029-23815030       1.00   1.00  0.00  0.00  0.00  0.00  0.00  0.00  0.00  0.00
  23815030-23815031       1.00   1.00  0.00  0.00  0.00  0.00  0.00  0.00  0.00  0.00
  23815031-23815032       1.00   1.00  0.00  0.00  0.00  0.00  0.00  0.00  0.00  0.00
  23815032-23815033       1.63   1.00  0.00  0.00  0.00  0.00  0.00  0.00  0.00  0.00
  23815033-23815024       2.62   1.00  0.00  0.00  0.00  0.00  0.00  0.00  0.00  0.00
  23815038-23810023       1.00   1.00  0.00  0.00  0.00  0.00  0.00  0.00  0.00  0.00
  23816003-23809053       1.00   1.00  0.00  0.00  0.00  0.00  0.00  0.00  0.00  0.00
  23816006-23816003       1.00   1.00  0.00  0.00  0.00  0.00  0.00  0.00  0.00  0.00
  23816011-23816006       1.00   1.00  0.00  0.00  0.00  0.00  0.00  0.00  0.00  0.00
  23816014-23816036       1.11   1.00  0.00  0.00  0.00  0.00  0.00  0.00  0.00  0.00
  23816015-23816014       1.00   1.00  0.00  0.00  0.00  0.00  0.00  0.00  0.00  0.00
  23816016-23816015       1.00   1.00  0.00  0.00  0.00  0.00  0.00  0.00  0.00  0.00
  23816017-23816014       1.00   1.00  0.00  0.00  0.00  0.00  0.00  0.00  0.00  0.00
  23816018-23816016       1.00   1.00  0.00  0.00  0.00  0.00  0.00  0.00  0.00  0.00
  23816036-23816037       1.00   1.00  0.00  0.00  0.00  0.00  0.00  0.00  0.00  0.00
  23816037-23816011       3.15   1.00  0.00  0.00  0.00  0.00  0.00  0.00  0.00  0.00
  23916007-23916003     508.59   1.00  0.00  0.00  0.00  0.00  0.00  0.00  0.00  0.00
  23916008-23916007      82.59   1.00  0.00  0.00  0.00  0.00  0.00  0.00  0.00  0.00
  23916014-23916015       1.00   1.00  0.00  0.00  0.00  0.00  0.00  0.00  0.00  0.00
  23916015-23916007       1.00   1.00  0.00  0.00  0.00  0.00  0.00  0.00  0.00  0.00
  23916016-23916015       2.24   1.00  0.00  0.00  0.00  0.00  0.00  0.00  0.00  0.00
  23916017-23916016       1.00   1.00  0.00  0.00  0.00  0.00  0.00  0.00  0.00  0.00
  23916025-23916026       1.00   1.00  0.00  0.00  0.00  0.00  0.00  0.00  0.00  0.00
  23916026-23916015       1.00   1.00  0.00  0.00  0.00  0.00  0.00  0.00  0.00  0.00
  23916027-23916026       2.67   1.00  0.00  0.00  0.00  0.00  0.00  0.00  0.00  0.00
  
  
  *************************
  Conduit Surcharge Summary
  *************************
  
  No conduits were surcharged.
  

  Analysis begun on:  Wed Jan 02 04:45:58 2019
  Analysis ended on:  Wed Jan 02 04:46:01 2019
  Total elapsed time: 00:00:03