
  EPA STORM WATER MANAGEMENT MODEL - VERSION 5.1 (Build 5.1.012)
  --------------------------------------------------------------

  
  ERROR 205: invalid keyword AVERAGES at line 239 of [REPORT] section:
  AVERAGES NO


  Analysis begun on:  Wed Jan 02 04:46:02 2019
  Analysis ended on:  Wed Jan 02 04:46:02 2019
  Total elapsed time: < 1 sec