
  EPA STORM WATER MANAGEMENT MODEL - VERSION 5.1 (Build 5.1.012)
  --------------------------------------------------------------

                                                                                                                                                                                                                                                                                                                                                              EXTRANUSER''SMANUALEXAMPLE2 
                                                                                                                                                                                                                                                                                                                                                              BASICPIPESYSTEMWITHTIDEGATEFROMFIGURE3-2 
  
  
  ERROR 134: Node 16009 has illegal DUMMY link connections.
  
  *********************************************************
  NOTE: The summary statistics displayed in this report are
  based on results found at every computational time step,  
  not just on results from each reporting time step.
  *********************************************************
  
  ****************
  Analysis Options
  ****************
  Flow Units ............... CFS
  Process Models:
    Rainfall/Runoff ........ NO
    RDII ................... NO
    Snowmelt ............... NO
    Groundwater ............ NO
    Flow Routing ........... YES
    Ponding Allowed ........ NO
    Water Quality .......... NO
  Flow Routing Method ...... DYNWAVE
  Starting Date ............ 01/01/1988 00:00:00
  Ending Date .............. 01/01/1988 08:00:00
  Antecedent Dry Days ...... 0.0
  Report Time Step ......... 00:01:00
  Routing Time Step ........ 60.00 sec
  Variable Time Step ....... YES
  Maximum Trials ........... 8
  Number of Threads ........ 1
  Head Tolerance ........... 0.005000 ft
  

  Analysis begun on:  Wed Jan 02 04:46:01 2019
  Analysis ended on:  Wed Jan 02 04:46:01 2019
  Total elapsed time: < 1 sec