
  EPA STORM WATER MANAGEMENT MODEL - VERSION 5.1 (Build 5.1.012)
  --------------------------------------------------------------

  EXTRAN USER''S MANUAL EXAMPLE 1 
  baseline extran model 
  
  
  *********************************************************
  NOTE: The summary statistics displayed in this report are
  based on results found at every computational time step,  
  not just on results from each reporting time step.
  *********************************************************
  
  ****************
  Analysis Options
  ****************
  Flow Units ............... CFS
  Process Models:
    Rainfall/Runoff ........ NO
    RDII ................... NO
    Snowmelt ............... NO
    Groundwater ............ NO
    Flow Routing ........... YES
    Ponding Allowed ........ NO
    Water Quality .......... NO
  Flow Routing Method ...... DYNWAVE
  Starting Date ............ 01/01/1988 00:00:00
  Ending Date .............. 01/01/1988 08:00:00
  Antecedent Dry Days ...... 0.0
  Report Time Step ......... 00:03:20
  Routing Time Step ........ 20.00 sec
  Variable Time Step ....... YES
  Maximum Trials ........... 8
  Number of Threads ........ 1
  Head Tolerance ........... 0.005000 ft
  
  
  **************************        Volume        Volume
  Flow Routing Continuity        acre-feet      10^6 gal
  **************************     ---------     ---------
  Dry Weather Inflow .......         0.000         0.000
  Wet Weather Inflow .......         0.000         0.000
  Groundwater Inflow .......         0.000         0.000
  RDII Inflow ..............         0.000         0.000
  External Inflow ..........        33.468        10.906
  External Outflow .........        30.730        10.014
  Flooding Loss ............         2.634         0.858
  Evaporation Loss .........         0.000         0.000
  Exfiltration Loss ........         0.000         0.000
  Initial Stored Volume ....         0.000         0.000
  Final Stored Volume ......         0.114         0.037
  Continuity Error (%) .....        -0.029
  
  
  *************************
  Highest Continuity Errors
  *************************
  Node 80608 (1.55%)
  
  
  ***************************
  Time-Step Critical Elements
  ***************************
  Link 1630 (26.87%)
  
  
  ********************************
  Highest Flow Instability Indexes
  ********************************
  Link 1600 (26)
  Link 8130 (24)
  Link 1570 (13)
  Link 8060 (5)
  Link 8100 (3)
  
  
  *************************
  Routing Time Step Summary
  *************************
  Minimum Time Step           :     8.28 sec
  Average Time Step           :    19.74 sec
  Maximum Time Step           :    20.00 sec
  Percent in Steady State     :     0.00
  Average Iterations per Step :     2.37
  Percent Not Converging      :     3.50
  
  
  ******************
  Node Depth Summary
  ******************
  
  ---------------------------------------------------------------------------------
                                 Average  Maximum  Maximum  Time of Max    Reported
                                   Depth    Depth      HGL   Occurrence   Max Depth
  Node                 Type         Feet     Feet     Feet  days hr:min        Feet
  ---------------------------------------------------------------------------------
  80408                JUNCTION     4.20    13.40   138.00     0  00:38       12.78
  80608                JUNCTION     5.67    16.70   135.00     0  00:38       16.70
  81009                JUNCTION     1.01     2.85   131.05     0  00:31        2.85
  81309                JUNCTION     1.36     3.30   120.80     0  01:05        3.30
  82309                JUNCTION     7.86    22.32   134.62     0  00:38       21.60
  10309                JUNCTION     1.48     2.76   104.36     0  01:43        2.76
  15009                JUNCTION     1.00     2.15   113.65     0  01:31        2.15
  16009                JUNCTION     1.55     2.95   104.95     0  01:37        2.95
  16109                JUNCTION     1.39     2.96   105.76     0  01:44        2.96
  10208                OUTFALL      1.31     2.53    92.43     0  01:43        2.53
  
  
  *******************
  Node Inflow Summary
  *******************
  
  -------------------------------------------------------------------------------------------------
                                  Maximum  Maximum                  Lateral       Total        Flow
                                  Lateral    Total  Time of Max      Inflow      Inflow     Balance
                                   Inflow   Inflow   Occurrence      Volume      Volume       Error
  Node                 Type           CFS      CFS  days hr:min    10^6 gal    10^6 gal     Percent
  -------------------------------------------------------------------------------------------------
  80408                JUNCTION     45.00    45.00     0  00:15        3.64        3.64      -0.321
  80608                JUNCTION      0.00    49.32     0  00:35           0        3.64       1.573
  81009                JUNCTION     50.00    50.00     0  00:15        4.04        4.04      -0.541
  81309                JUNCTION      0.00    54.41     0  00:46           0        4.06       0.322
  82309                JUNCTION     40.00    87.37     0  00:30        3.23        5.96      -0.882
  10309                JUNCTION      0.00   122.79     0  01:36           0          10       0.129
  15009                JUNCTION      0.00    52.10     0  01:12           0        4.05       0.144
  16009                JUNCTION      0.00   122.82     0  01:33           0          10       0.183
  16109                JUNCTION      0.00    72.00     0  01:44           0        6.02       0.235
  10208                OUTFALL       0.00   122.68     0  01:43           0          10       0.000
  
  
  **********************
  Node Surcharge Summary
  **********************
  
  Surcharging occurs when water rises above the top of the highest conduit.
  ---------------------------------------------------------------------
                                               Max. Height   Min. Depth
                                   Hours       Above Crown    Below Rim
  Node                 Type      Surcharged           Feet         Feet
  ---------------------------------------------------------------------
  80408                JUNCTION        2.46          9.400        0.000
  80608                JUNCTION        2.60         12.700        0.000
  82309                JUNCTION        2.75         16.119       20.381
  
  
  *********************
  Node Flooding Summary
  *********************
  
  Flooding refers to all water that overflows a node, whether it ponds or not.
  --------------------------------------------------------------------------
                                                             Total   Maximum
                                 Maximum   Time of Max       Flood    Ponded
                        Hours       Rate    Occurrence      Volume     Depth
  Node                 Flooded       CFS   days hr:min    10^6 gal      Feet
  --------------------------------------------------------------------------
  80408                   0.02     20.00      0  00:38       0.005     0.000
  80608                   2.41     18.30      0  00:39       0.853     0.000
  
  
  ***********************
  Outfall Loading Summary
  ***********************
  
  -----------------------------------------------------------
                         Flow       Avg       Max       Total
                         Freq      Flow      Flow      Volume
  Outfall Node           Pcnt       CFS       CFS    10^6 gal
  -----------------------------------------------------------
  10208                 94.38     50.15    122.68      10.013
  -----------------------------------------------------------
  System                94.38     50.15    122.68      10.013
  
  
  ********************
  Link Flow Summary
  ********************
  
  -----------------------------------------------------------------------------
                                 Maximum  Time of Max   Maximum    Max/    Max/
                                  |Flow|   Occurrence   |Veloc|    Full    Full
  Link                 Type          CFS  days hr:min    ft/sec    Flow   Depth
  -----------------------------------------------------------------------------
  8040                 CONDUIT     49.32     0  00:35      7.13    0.67    1.00
  8060                 CONDUIT     47.37     0  00:30      4.85    0.89    1.00
  8100                 CONDUIT     54.41     0  00:46      6.48    0.70    0.63
  8130                 CONDUIT     52.10     0  01:12      5.55    0.74    0.60
  1030                 CONDUIT    122.68     0  01:43      5.84    0.04    0.29
  1570                 CONDUIT     50.88     0  01:32      4.73    0.41    0.46
  1600                 CONDUIT     72.00     0  01:54      5.32    0.49    0.49
  1630                 CONDUIT    122.79     0  01:36      5.93    0.05    0.32
  1602                 CONDUIT     72.00     0  01:44      4.33    1.66    0.80
  
  
  ***************************
  Flow Classification Summary
  ***************************
  
  -------------------------------------------------------------------------------------
                      Adjusted    ---------- Fraction of Time in Flow Class ---------- 
                       /Actual         Up    Down  Sub   Sup   Up    Down  Norm  Inlet 
  Conduit               Length    Dry  Dry   Dry   Crit  Crit  Crit  Crit  Ltd   Ctrl  
  -------------------------------------------------------------------------------------
  8040                    1.00   0.00  0.00  0.00  0.97  0.03  0.00  0.00  0.61  0.00
  8060                    1.00   0.00  0.00  0.00  0.44  0.00  0.00  0.55  0.04  0.00
  8100                    1.00   0.00  0.00  0.00  0.97  0.03  0.00  0.00  0.60  0.00
  8130                    1.00   0.00  0.00  0.00  0.97  0.02  0.00  0.00  0.26  0.00
  1030                    1.00   0.03  0.00  0.00  0.97  0.00  0.00  0.00  0.00  0.00
  1570                    1.00   0.00  0.00  0.00  1.00  0.00  0.00  0.00  0.51  0.00
  1600                    1.00   0.00  0.00  0.00  0.98  0.02  0.00  0.00  0.27  0.00
  1630                    1.00   0.00  0.00  0.00  0.96  0.03  0.00  0.00  0.00  0.00
  1602                    1.00   0.00  0.00  0.00  1.00  0.00  0.00  0.00  0.00  0.00
  
  
  *************************
  Conduit Surcharge Summary
  *************************
  
  ----------------------------------------------------------------------------
                                                           Hours        Hours 
                         --------- Hours Full --------   Above Full   Capacity
  Conduit                Both Ends  Upstream  Dnstream   Normal Flow   Limited
  ----------------------------------------------------------------------------
  8040                        2.45      2.45      2.60      0.01         0.01
  8060                        2.60      2.60      2.75      0.01         0.01
  1602                        0.01      2.99      0.01      2.91         0.01
  

  Analysis begun on:  Wed Jan 02 08:32:23 2019
  Analysis ended on:  Wed Jan 02 08:32:23 2019
  Total elapsed time: < 1 sec