
  EPA STORM WATER MANAGEMENT MODEL - VERSION 5.1 (Build 5.1.012)
  --------------------------------------------------------------

  
  *************
  Element Count
  *************
  Number of rain gages ...... 1
  Number of subcatchments ... 6
  Number of nodes ........... 61
  Number of links ........... 60
  Number of pollutants ...... 0
  Number of land uses ....... 0
  
  
  ****************
  Raingage Summary
  ****************
                                                      Data       Recording
  Name                 Data Source                    Type       Interval 
  ------------------------------------------------------------------------
  3                    D:\SWMMandSoftware\SWMM5.013_June2018\EPASWMM5.1.013\Swmm5.1.013UpdateTests\DataFiles\376698Providence.NCD
  
  
  ********************
  Subcatchment Summary
  ********************
  Name                       Area     Width   %Imperv    %Slope Rain Gage            Outlet              
  -----------------------------------------------------------------------------------------------------------
  1                          5.00     20.00     25.00    0.5000 3                    80408               
  2                          5.00     20.00     25.00    0.5000 3                    80408c              
  3                          5.00     20.00     25.00    0.5000 3                    80408e              
  4                          5.00     20.00     25.00    0.5000 3                    80408d              
  5                          5.00     20.00     25.00    0.5000 3                    80408b              
  6                          5.00     20.00     25.00    0.5000 3                    80408a              
  
  
  ************
  Node Summary
  ************
                                           Invert      Max.    Ponded    External
  Name                 Type                 Elev.     Depth      Area    Inflow  
  -------------------------------------------------------------------------------
  10309                JUNCTION            101.60      9.40       0.0
  10309a               JUNCTION            101.60      9.40       0.0
  10309b               JUNCTION            101.60      9.40       0.0
  10309c               JUNCTION            101.60      9.40       0.0
  10309d               JUNCTION            101.60      9.40       0.0
  10309e               JUNCTION            101.60      9.40       0.0
  15009                JUNCTION            111.50     13.50       0.0
  15009a               JUNCTION            111.50     13.50       0.0
  15009b               JUNCTION            111.50     13.50       0.0
  15009c               JUNCTION            111.50     13.50       0.0
  15009d               JUNCTION            111.50     13.50       0.0
  15009e               JUNCTION            121.00     13.50       0.0
  16009                JUNCTION            102.00     18.00       0.0
  16009a               JUNCTION            102.00     18.00       0.0
  16009b               JUNCTION            102.00     18.00       0.0
  16009c               JUNCTION            102.00     18.00       0.0
  16009d               JUNCTION            102.00     18.00       0.0
  16009e               JUNCTION            102.00     18.00       0.0
  16109                JUNCTION            102.80     22.20       0.0    Yes
  16109a               JUNCTION            102.80     22.20       0.0
  16109b               JUNCTION            102.80     22.20       0.0
  16109c               JUNCTION            102.80     22.20       0.0
  16109d               JUNCTION            102.80     22.20       0.0
  16109e               JUNCTION            102.80     22.20       0.0
  80408                JUNCTION            120.00     13.40       0.0    Yes
  80408a               JUNCTION            124.60     13.40       0.0    Yes
  80408b               JUNCTION            124.60     13.40       0.0    Yes
  80408c               JUNCTION            124.60     13.40       0.0    Yes
  80408d               JUNCTION            124.60     13.40       0.0    Yes
  80408e               JUNCTION            124.60     13.40       0.0    Yes
  80608                JUNCTION            118.30     16.70       0.0
  80608a               JUNCTION            118.30     16.70       0.0
  80608b               JUNCTION            118.30     16.70       0.0
  80608c               JUNCTION            118.30     16.70       0.0
  80608d               JUNCTION            118.30     16.70       0.0
  80608e               JUNCTION            118.30     16.70       0.0
  81009                JUNCTION            128.20      8.80       0.0    Yes
  81009a               JUNCTION            128.20      8.80       0.0    Yes
  81009b               JUNCTION            128.20      8.80       0.0    Yes
  81009c               JUNCTION            128.20      8.80       0.0    Yes
  81009d               JUNCTION            128.20      8.80       0.0    Yes
  81009e               JUNCTION            128.20      8.80       0.0    Yes
  81309                JUNCTION            117.50     12.50       0.0
  81309a               JUNCTION            117.50     12.50       0.0
  81309b               JUNCTION            117.50     12.50       0.0
  81309c               JUNCTION            117.50     12.50       0.0
  81309d               JUNCTION            117.50     12.50       0.0
  81309e               JUNCTION            117.50     12.50       0.0
  82308d               JUNCTION            112.30     42.70       0.0
  82309                JUNCTION            112.30     42.70       0.0    Yes
  82309a               JUNCTION            112.30     42.70       0.0    Yes
  82309b               JUNCTION            112.30     42.70       0.0    Yes
  82309c               JUNCTION            112.30     42.70       0.0    Yes
  WetWell              JUNCTION            112.30     21.00       0.0    Yes
  10208                OUTFALL              89.90      9.00       0.0
  10208b               OUTFALL              89.90      9.00       0.0
  10208c               OUTFALL              89.90      9.00       0.0
  10208d               OUTFALL              89.90      9.00       0.0
  10208e               OUTFALL              89.90      9.00       0.0
  10208a               OUTFALL              89.90      9.00       0.0
  82309d               STORAGE             112.30     42.70       0.0    Yes
  
  
  ************
  Link Summary
  ************
  Name             From Node        To Node          Type            Length    %Slope Roughness
  ---------------------------------------------------------------------------------------------
  1030e            10309e           10208e           CONDUIT         4500.0    0.2600    0.0160
  1030             10309            10208            CONDUIT         4500.0    0.2600    0.2000
  1030a            10309a           10208a           CONDUIT         4500.0    0.2600    0.0160
  1030b            10309b           10208b           CONDUIT         4500.0    0.2600    0.0160
  1030c            10309c           10208c           CONDUIT         4500.0    0.2600    0.0160
  1030d            10309d           10208d           CONDUIT         4500.0    0.2600    0.0160
  1570             15009            16009            CONDUIT         5000.0    0.1900    0.0154
  1570a            15009a           16009a           CONDUIT         5000.0    0.1900    0.0154
  1570b            15009b           16009b           CONDUIT         5000.0    0.1900    0.0154
  1570c            15009c           16009c           CONDUIT          100.0    9.5432    0.0154
  1570d            15009d           16009d           CONDUIT         5000.0    0.1900    0.0154
  1570e            15009e           16009e           CONDUIT         5000.0    0.3800    0.0154
  1600             16009            16109            CONDUIT          500.0   -0.1600    0.0150
  1600a            16009a           16109a           CONDUIT          500.0   -0.1600    0.0150
  1600b            16009b           16109b           CONDUIT          500.0   -0.1600    0.0150
  1600c            16009c           16109c           CONDUIT          500.0   -0.1600    0.0150
  1600d            16009d           16109d           CONDUIT          500.0   -0.1600    0.0150
  1600e            16009e           16109e           CONDUIT          500.0   -0.1600    0.0150
  1602             82309            16109            CONDUIT         5000.0    0.1900    0.0340
  1602a            82309a           16109a           CONDUIT         5000.0    0.1900    0.0340
  1602b            82309b           16109b           CONDUIT         5000.0    0.1900    0.0340
  1602c            82309c           16109c           CONDUIT         5000.0    0.1900    0.0340
  1602d            82309d           16109d           CONDUIT         5000.0    0.1900    0.0340
  1602e            WetWell          16109e           CONDUIT         5000.0    0.1900    0.0340
  1630             16009            10309            CONDUIT          300.0    0.1333    0.0150
  1630a            16009a           10309a           CONDUIT          300.0    0.1333    0.0150
  1630b            16009b           10309b           CONDUIT          300.0    0.1333    0.0150
  1630c            16009c           10309c           CONDUIT          300.0    0.1333    0.0150
  1630d            16009d           10309d           CONDUIT          300.0    0.1333    0.0150
  1630e            16009e           10309e           CONDUIT          300.0    0.1333    0.0150
  8040             80408            80608            CONDUIT         1800.0    0.0944    0.0150
  8040a            80408a           80608a           CONDUIT         1800.0    0.3500    0.0150
  8040b            80408b           80608b           CONDUIT         1800.0    0.3500    0.0150
  8040c            80408c           80608c           CONDUIT         1800.0    0.3500    0.0150
  8040d            80408d           80608d           CONDUIT         1800.0    0.3500    0.0150
  8040e            80408e           80608e           CONDUIT         1800.0    0.3500    0.0150
  8060             80608            82309            CONDUIT         2075.0    0.1831    0.0150
  8060a            80608a           82309a           CONDUIT         2075.0    0.1831    0.0150
  8060b            80608b           82309b           CONDUIT         2075.0    0.1831    0.0150
  8060c            80608c           82309c           CONDUIT         2075.0    0.1831    0.0150
  8060d            80608d           82309d           CONDUIT         2075.0    0.1831    0.0150
  8060e            80608e           WetWell          CONDUIT         2075.0    0.1831    0.0150
  8100             81009            81309            CONDUIT         5100.0    0.2098    0.0150
  8100a            81009a           81309a           CONDUIT         5100.0    0.2098    0.0150
  8100b            81009b           81309b           CONDUIT         5100.0    0.2098    0.0150
  8100c            81009c           81309c           CONDUIT         5100.0    0.2098    0.0150
  8100d            81009d           81309d           CONDUIT         5100.0    0.2098    0.0150
  8100e            81009e           81309e           CONDUIT         5100.0    0.2098    0.0150
  8130             81309            15009            CONDUIT         3500.0    0.1714    0.0150
  8130a            81309a           15009a           CONDUIT         3500.0    0.1714    0.0150
  8130b            81309b           15009b           CONDUIT         3500.0    0.1714    0.0150
  8130c            81309c           15009c           CONDUIT         3500.0    0.1714    0.0150
  8130d            81309d           15009d           CONDUIT         3500.0    0.1714    0.0150
  8130e            81309e           15009e           CONDUIT         3500.0   -0.1000    0.0150
  Pump1            WetWell          15009e           TYPE3 PUMP  
  Pump2            WetWell          15009e           TYPE3 PUMP  
  Pump3            WetWell          15009e           TYPE3 PUMP  
  OR1@82309d-82308d 82309d           82308d           ORIFICE     
  OR1@82309b-15009b 82309b           15009b           ORIFICE     
  WEIR1@82309c-15009c 82309c           15009c           WEIR        
  
  
  *********************
  Cross Section Summary
  *********************
                                        Full     Full     Hyd.     Max.   No. of     Full
  Conduit          Shape               Depth     Area     Rad.    Width  Barrels     Flow
  ---------------------------------------------------------------------------------------
  1030e            TRIANGULAR           9.00   243.00     4.27    54.00        1  3028.41
  1030             TRIANGULAR           9.00   243.00     4.27    54.00        1   242.27
  1030a            TRIANGULAR           9.00   243.00     4.27    54.00        1  3028.41
  1030b            TRIANGULAR           9.00   243.00     4.27    54.00        1  3028.41
  1030c            TRIANGULAR           9.00   243.00     4.27    54.00        1  3028.41
  1030d            TRIANGULAR           9.00   243.00     4.27    54.00        1  3028.41
  1570             CIRCULAR             5.50    23.76     1.38     5.50        1   123.56
  1570a            CIRCULAR             5.50    23.76     1.38     5.50        1   123.56
  1570b            CIRCULAR             5.50    23.76     1.38     5.50        1   123.56
  1570c            CIRCULAR             5.50    23.76     1.38     5.50        1   875.71
  1570d            CIRCULAR             5.50    23.76     1.38     5.50        1   123.56
  1570e            CIRCULAR             5.50    23.76     1.38     5.50        1   174.75
  1600             CIRCULAR             6.00    28.27     1.50     6.00        1   146.82
  1600a            CIRCULAR             6.00    28.27     1.50     6.00        1   146.82
  1600b            CIRCULAR             6.00    28.27     1.50     6.00        1   146.82
  1600c            CIRCULAR             6.00    28.27     1.50     6.00        1   146.82
  1600d            CIRCULAR             6.00    28.27     1.50     6.00        1   146.82
  1600e            CIRCULAR             6.00    28.27     1.50     6.00        1   146.82
  1602             CIRCULAR             5.00    19.63     1.25     5.00        1    43.41
  1602a            CIRCULAR             5.00    19.63     1.25     5.00        1    43.41
  1602b            CIRCULAR             5.00    19.63     1.25     5.00        1    43.41
  1602c            CIRCULAR             5.00    19.63     1.25     5.00        1    43.41
  1602d            CIRCULAR             5.00    19.63     1.25     5.00        1    43.41
  1602e            CIRCULAR             5.00    19.63     1.25     5.00        1    43.41
  1630             TRIANGULAR           9.00   243.00     4.27    54.00        1  2313.27
  1630a            TRIANGULAR           9.00   243.00     4.27    54.00        1  2313.27
  1630b            TRIANGULAR           9.00   243.00     4.27    54.00        1  2313.27
  1630c            TRIANGULAR           9.00   243.00     4.27    54.00        1  2313.27
  1630d            TRIANGULAR           9.00   243.00     4.27    54.00        1  2313.27
  1630e            TRIANGULAR           9.00   243.00     4.27    54.00        1  2313.27
  8040             FORCE_MAIN           4.00    12.57     1.00     4.00        1    46.98
  8040a            CIRCULAR             4.00    12.57     1.00     4.00        1    73.65
  8040b            CIRCULAR             4.00    12.57     1.00     4.00        1    73.65
  8040c            CIRCULAR             4.00    12.57     1.00     4.00        1    73.65
  8040d            CIRCULAR             4.00    12.57     1.00     4.00        1    73.65
  8040e            CIRCULAR             4.00    12.57     1.00     4.00        1    73.65
  8060             CIRCULAR             4.00    12.57     1.00     4.00        1    53.27
  8060a            CIRCULAR             4.00    12.57     1.00     4.00        1    53.27
  8060b            CIRCULAR             4.00    12.57     1.00     4.00        1    53.27
  8060c            CIRCULAR             4.00    12.57     1.00     4.00        1    53.27
  8060d            CIRCULAR             4.00    12.57     1.00     4.00        1    53.27
  8060e            CIRCULAR             4.00    12.57     1.00     4.00        1    53.27
  8100             CIRCULAR             4.50    15.90     1.13     4.50        1    78.06
  8100a            CIRCULAR             4.50    15.90     1.13     4.50        1    78.06
  8100b            CIRCULAR             4.50    15.90     1.13     4.50        1    78.06
  8100c            CIRCULAR             4.50    15.90     1.13     4.50        1    78.06
  8100d            CIRCULAR             4.50    15.90     1.13     4.50        1    78.06
  8100e            CIRCULAR             4.50    15.90     1.13     4.50        1    78.06
  8130             CIRCULAR             4.50    15.90     1.13     4.50        1    70.56
  8130a            CIRCULAR             4.50    15.90     1.13     4.50        1    70.56
  8130b            CIRCULAR             4.50    15.90     1.13     4.50        1    70.56
  8130c            CIRCULAR             4.50    15.90     1.13     4.50        1    70.56
  8130d            CIRCULAR             4.50    15.90     1.13     4.50        1    70.56
  8130e            CIRCULAR             4.50    15.90     1.13     4.50        1    53.89
  
  
  
  *********************
  Rainfall File Summary
  *********************
  Station    First        Last         Recording   Periods    Periods    Periods
  ID         Date         Date         Frequency  w/Precip    Missing    Malfunc.
  -------------------------------------------------------------------------------
  44720100   05/05/1948   12/27/2010      60 min     43023          6          0

  
  *********************************************************
  NOTE: The summary statistics displayed in this report are
  based on results found at every computational time step,  
  not just on results from each reporting time step.
  *********************************************************
  
  ****************
  Analysis Options
  ****************
  Flow Units ............... CFS
  Process Models:
    Rainfall/Runoff ........ YES
    RDII ................... NO
    Snowmelt ............... NO
    Groundwater ............ NO
    Flow Routing ........... YES
    Ponding Allowed ........ YES
    Water Quality .......... NO
  Infiltration Method ...... GREEN_AMPT
  Flow Routing Method ...... DYNWAVE
  Starting Date ............ 08/08/1948 10:00:00
  Ending Date .............. 08/08/1949 20:00:00
  Antecedent Dry Days ...... 0.0
  Report Time Step ......... 00:05:00
  Wet Time Step ............ 00:01:00
  Dry Time Step ............ 01:05:00
  Routing Time Step ........ 60.00 sec
  Variable Time Step ....... YES
  Maximum Trials ........... 8
  Number of Threads ........ 1
  Head Tolerance ........... 0.001000 ft
  
  
  *********************
  Control Actions Taken
  *********************

  
  **************************        Volume         Depth
  Runoff Quantity Continuity     acre-feet        inches
  **************************     ---------       -------
  Total Precipitation ......        91.275        36.510
  Evaporation Loss .........        11.641         4.656
  Infiltration Loss ........        68.332        27.333
  Surface Runoff ...........        11.304         4.521
  Final Storage ............         0.000         0.000
  Continuity Error (%) .....        -0.002
  
  
  **************************        Volume        Volume
  Flow Routing Continuity        acre-feet      10^6 gal
  **************************     ---------     ---------
  Dry Weather Inflow .......     21794.219      7101.972
  Wet Weather Inflow .......        11.304         3.684
  Groundwater Inflow .......         0.000         0.000
  RDII Inflow ..............         0.000         0.000
  External Inflow ..........       724.767       236.176
  External Outflow .........     22450.782      7315.923
  Flooding Loss ............         0.000         0.000
  Evaporation Loss .........        71.967        23.451
  Exfiltration Loss ........         0.000         0.000
  Initial Stored Volume ....         1.569         0.511
  Final Stored Volume ......        10.692         3.484
  Continuity Error (%) .....        -0.007
  
  
  *************************
  Highest Continuity Errors
  *************************
  Node 15009c (-5.84%)
  Node 15009b (-3.83%)
  Node 16009b (3.30%)
  Node WetWell (-2.49%)
  Node 82309c (-2.49%)
  
  
  ***************************
  Time-Step Critical Elements
  ***************************
  Link 1600 (99.99%)
  
  
  ********************************
  Highest Flow Instability Indexes
  ********************************
  Link OR1@82309d-82308d (65)
  
  
  *************************
  Routing Time Step Summary
  *************************
  Minimum Time Step           :     2.72 sec
  Average Time Step           :    35.75 sec
  Maximum Time Step           :    60.00 sec
  Percent in Steady State     :    -0.00
  Average Iterations per Step :     2.04
  Percent Not Converging      :     0.00
  
  
  ***************************
  Subcatchment Runoff Summary
  ***************************
  
  --------------------------------------------------------------------------------------------------------
                            Total      Total      Total      Total      Total       Total     Peak  Runoff
                           Precip      Runon       Evap      Infil     Runoff      Runoff   Runoff   Coeff
  Subcatchment                 in         in         in         in         in    10^6 gal      CFS
  --------------------------------------------------------------------------------------------------------
  1                         36.51       0.00       4.66      27.33       4.52        0.61     1.63   0.124
  2                         36.51       0.00       4.66      27.33       4.52        0.61     1.63   0.124
  3                         36.51       0.00       4.66      27.33       4.52        0.61     1.63   0.124
  4                         36.51       0.00       4.66      27.33       4.52        0.61     1.63   0.124
  5                         36.51       0.00       4.66      27.33       4.52        0.61     1.63   0.124
  6                         36.51       0.00       4.66      27.33       4.52        0.61     1.63   0.124
  
  
  ******************
  Node Depth Summary
  ******************
  
  ---------------------------------------------------------------------------------
                                 Average  Maximum  Maximum  Time of Max    Reported
                                   Depth    Depth      HGL   Occurrence   Max Depth
  Node                 Type         Feet     Feet     Feet  days hr:min        Feet
  ---------------------------------------------------------------------------------
  10309                JUNCTION     5.04     5.55   107.15    94  14:01        5.55
  10309a               JUNCTION     1.23     1.38   102.98    94  13:29        1.38
  10309b               JUNCTION     0.02     0.47   102.07     3  20:59        0.47
  10309c               JUNCTION     0.02     0.46   102.06     3  21:08        0.46
  10309d               JUNCTION     0.02     0.43   102.03     3  21:52        0.43
  10309e               JUNCTION     0.02     0.45   102.05     3  21:37        0.45
  15009                JUNCTION     0.00     0.00   111.50     0  00:00        0.00
  15009a               JUNCTION     0.00     0.00   111.50     0  00:00        0.00
  15009b               JUNCTION     0.00     0.41   111.91     3  19:31        0.41
  15009c               JUNCTION     0.00     0.02   111.52     3  19:45        0.02
  15009d               JUNCTION     0.00     0.00   111.50     0  00:00        0.00
  15009e               JUNCTION     0.00     0.00   121.00     0  00:00        0.00
  16009                JUNCTION     4.64     5.15   107.15    94  14:01        5.15
  16009a               JUNCTION     1.37     1.53   103.53    94  13:17        1.53
  16009b               JUNCTION     0.02     0.52   102.52     3  20:17        0.52
  16009c               JUNCTION     0.02     0.51   102.51     3  20:23        0.51
  16009d               JUNCTION     0.02     0.47   102.47     3  21:05        0.47
  16009e               JUNCTION     0.02     0.49   102.49     3  20:52        0.49
  16109                JUNCTION     3.85     4.37   107.17    94  14:00        4.37
  16109a               JUNCTION     1.31     1.51   104.31    41  08:30        1.51
  16109b               JUNCTION     0.00     0.07   102.87     3  20:11        0.07
  16109c               JUNCTION     0.00     0.33   103.13     3  20:24        0.33
  16109d               JUNCTION     0.01     0.34   103.14     3  20:14        0.34
  16109e               JUNCTION     0.00     0.36   103.16     3  20:05        0.36
  80408                JUNCTION     1.68     2.03   122.03   204  14:14        2.02
  80408a               JUNCTION     1.24     1.45   126.05    41  08:00        1.45
  80408b               JUNCTION     0.00     0.41   125.01     3  19:00        0.41
  80408c               JUNCTION     0.00     0.41   125.01     3  19:00        0.41
  80408d               JUNCTION     0.00     0.41   125.01     3  19:00        0.41
  80408e               JUNCTION     0.00     0.41   125.01     3  19:00        0.41
  80608                JUNCTION     1.68     1.96   120.26    41  08:07        1.96
  80608a               JUNCTION     1.63     1.91   120.21    41  08:06        1.91
  80608b               JUNCTION     0.01     0.52   118.82     3  19:07        0.52
  80608c               JUNCTION     0.01     0.52   118.82     3  19:07        0.52
  80608d               JUNCTION     0.01     0.52   118.82     3  19:07        0.52
  80608e               JUNCTION     0.01     0.52   118.82     3  19:07        0.52
  81009                JUNCTION     0.00     0.00   128.20     0  00:00        0.00
  81009a               JUNCTION     0.00     0.00   128.20     0  00:00        0.00
  81009b               JUNCTION     0.00     0.00   128.20     0  00:00        0.00
  81009c               JUNCTION     0.00     0.00   128.20     0  00:00        0.00
  81009d               JUNCTION     0.00     0.00   128.20     0  00:00        0.00
  81009e               JUNCTION     0.00     0.00   128.20     0  00:00        0.00
  81309                JUNCTION     0.00     0.00   117.50     0  00:00        0.00
  81309a               JUNCTION     0.00     0.00   117.50     0  00:00        0.00
  81309b               JUNCTION     0.00     0.00   117.50     0  00:00        0.00
  81309c               JUNCTION     0.00     0.00   117.50     0  00:00        0.00
  81309d               JUNCTION     0.00     0.00   117.50     0  00:00        0.00
  81309e               JUNCTION     0.00     0.00   117.50     0  00:00        0.00
  82308d               JUNCTION     0.01     0.67   112.97     3  19:47        0.67
  82309                JUNCTION     2.13     2.49   114.79    41  08:18        2.49
  82309a               JUNCTION     2.67     3.12   115.42    41  08:19        3.12
  82309b               JUNCTION     0.00     0.25   112.55     3  19:15        0.25
  82309c               JUNCTION     0.01     0.73   113.03     3  19:37        0.73
  WetWell              JUNCTION     0.01     0.73   113.03     3  19:37        0.73
  10208                OUTFALL      1.12     1.25    91.15    94  14:01        1.25
  10208b               OUTFALL      0.01     0.35    90.25     3  20:59        0.35
  10208c               OUTFALL      0.01     0.34    90.24     3  21:08        0.34
  10208d               OUTFALL      0.01     0.32    90.22     3  21:52        0.32
  10208e               OUTFALL      0.01     0.33    90.23     3  21:37        0.33
  10208a               OUTFALL      4.50     4.50    94.40     0  00:00        4.50
  82309d               STORAGE      0.01     0.68   112.98     3  19:45        0.68
  
  
  *******************
  Node Inflow Summary
  *******************
  
  -------------------------------------------------------------------------------------------------
                                  Maximum  Maximum                  Lateral       Total        Flow
                                  Lateral    Total  Time of Max      Inflow      Inflow     Balance
                                   Inflow   Inflow   Occurrence      Volume      Volume       Error
  Node                 Type           CFS      CFS  days hr:min    10^6 gal    10^6 gal     Percent
  -------------------------------------------------------------------------------------------------
  10309                JUNCTION      0.00    21.36    41  08:20           0   3.79e+003       0.025
  10309a               JUNCTION      0.00    20.44    94  13:18           0   3.55e+003       0.005
  10309b               JUNCTION      0.00     0.97     3  20:32           0       0.611       0.190
  10309c               JUNCTION      0.00     0.91     3  20:39           0       0.612       0.167
  10309d               JUNCTION      0.00     0.76     3  21:23           0       0.614       0.260
  10309e               JUNCTION      0.00     0.85     3  21:08           0       0.611       0.136
  15009                JUNCTION      0.00     0.00     0  00:00           0           0       0.000 gal
  15009a               JUNCTION      0.00     0.00     0  00:00           0           0       0.000 gal
  15009b               JUNCTION      0.00     1.29     3  19:15           0       0.592      -3.693
  15009c               JUNCTION      0.00     0.05     3  19:37           0     0.00054      -5.516
  15009d               JUNCTION      0.00     0.00     0  00:00           0           0       0.000 gal
  15009e               JUNCTION      0.00     0.00     0  00:00           0           0       0.000 gal
  16009                JUNCTION      0.00    21.45    41  08:19           0   3.79e+003       0.013
  16009a               JUNCTION      0.00    20.45    41  08:30           0   3.55e+003       0.002
  16009b               JUNCTION      0.00     1.35     3  19:40           0       0.637       3.416
  16009c               JUNCTION      0.00     0.86     3  20:22           0       0.615      -0.249
  16009d               JUNCTION      0.00     0.91     3  20:16           0        0.62       0.046
  16009e               JUNCTION      0.00     1.03     3  20:07           0       0.616      -0.002
  16109                JUNCTION      0.00    21.49    41  08:18           0   3.79e+003       0.000
  16109a               JUNCTION      0.00    20.47    41  08:21           0   3.55e+003       0.000
  16109b               JUNCTION      0.00     0.07     3  19:20           0      0.0231       0.000
  16109c               JUNCTION      0.00     0.96     3  19:53           0       0.629       0.000
  16109d               JUNCTION      0.00     0.90     3  20:03           0       0.632       0.000
  16109e               JUNCTION      0.00     1.03     3  19:52           0       0.629       0.000
  80408                JUNCTION     21.64    21.64    41  08:00   3.79e+003   3.79e+003       0.001
  80408a               JUNCTION     20.64    20.64    41  08:00   3.55e+003   3.55e+003       0.000
  80408b               JUNCTION      1.63     1.63     3  19:00       0.614       0.614      -1.883
  80408c               JUNCTION      1.63     1.63     3  19:00       0.614       0.614      -1.883
  80408d               JUNCTION      1.63     1.63     3  19:00       0.614       0.614      -1.883
  80408e               JUNCTION      1.63     1.63     3  19:00       0.614       0.614      -1.883
  80608                JUNCTION      0.00    21.63    41  08:01           0   3.79e+003       0.002
  80608a               JUNCTION      0.00    20.63    41  08:01           0   3.55e+003       0.002
  80608b               JUNCTION      0.00     1.61     3  19:00           0       0.626       1.892
  80608c               JUNCTION      0.00     1.61     3  19:00           0       0.626       1.892
  80608d               JUNCTION      0.00     1.61     3  19:00           0       0.626       1.892
  80608e               JUNCTION      0.00     1.61     3  19:00           0       0.626       1.892
  81009                JUNCTION      0.00     0.00     0  00:00           0           0       0.000 gal
  81009a               JUNCTION      0.00     0.00     0  00:00           0           0       0.000 gal
  81009b               JUNCTION      0.00     0.00     0  00:00           0           0       0.000 gal
  81009c               JUNCTION      0.00     0.00     0  00:00           0           0       0.000 gal
  81009d               JUNCTION      0.00     0.00     0  00:00           0           0       0.000 gal
  81009e               JUNCTION      0.00     0.00     0  00:00           0           0       0.000 gal
  81309                JUNCTION      0.00     0.00     0  00:00           0           0       0.000 gal
  81309a               JUNCTION      0.00     0.00     0  00:00           0           0       0.000 gal
  81309b               JUNCTION      0.00     0.00     0  00:00           0           0       0.000 gal
  81309c               JUNCTION      0.00     0.00     0  00:00           0           0       0.000 gal
  81309d               JUNCTION      0.00     0.00     0  00:00           0           0       0.000 gal
  81309e               JUNCTION      0.00     0.00     0  00:00           0           0       0.000 gal
  82308d               JUNCTION      0.00     0.38     3  19:29           0      0.0791       0.000
  82309                JUNCTION      0.00    21.57    41  08:08           0   3.79e+003       0.003
  82309a               JUNCTION      0.00    20.56    41  08:06           0   3.55e+003       0.004
  82309b               JUNCTION      0.00     1.41     3  19:08           0       0.614      -0.240
  82309c               JUNCTION      0.00     1.41     3  19:08           0       0.614      -2.429
  WetWell              JUNCTION      0.00     1.41     3  19:08           0       0.614      -2.434
  10208                OUTFALL       0.00    21.15    94  14:01           0   3.77e+003       0.000
  10208b               OUTFALL       0.00     0.86     3  20:59           0       0.566       0.000
  10208c               OUTFALL       0.00     0.80     3  21:08           0       0.569       0.000
  10208d               OUTFALL       0.00     0.68     3  21:52           0       0.561       0.000
  10208e               OUTFALL       0.00     0.75     3  21:37           0       0.564       0.000
  10208a               OUTFALL       0.00    20.39    94  13:29           0   3.54e+003       0.000
  82309d               STORAGE       0.00     1.41     3  19:08           0       0.698      -1.793
  
  
  **********************
  Node Surcharge Summary
  **********************
  
  No nodes were surcharged.
  
  
  *********************
  Node Flooding Summary
  *********************
  
  No nodes were flooded.
  
  
  **********************
  Storage Volume Summary
  **********************
  
  --------------------------------------------------------------------------------------------------
                         Average     Avg  Evap Exfil       Maximum     Max    Time of Max    Maximum
                          Volume    Pcnt  Pcnt  Pcnt        Volume    Pcnt     Occurrence    Outflow
  Storage Unit          1000 ft3    Full  Loss  Loss      1000 ft3    Full    days hr:min        CFS
  --------------------------------------------------------------------------------------------------
  82309d                   0.011       0     0     0         0.542       2       3  19:45       1.21
  
  
  ***********************
  Outfall Loading Summary
  ***********************
  
  -----------------------------------------------------------
                         Flow       Avg       Max       Total
                         Freq      Flow      Flow      Volume
  Outfall Node           Pcnt       CFS       CFS    10^6 gal
  -----------------------------------------------------------
  10208                 99.99     16.60     21.15    3773.193
  10208b                12.10      0.02      0.86       0.566
  10208c                11.68      0.02      0.80       0.569
  10208d                14.53      0.02      0.68       0.561
  10208e                12.76      0.02      0.75       0.564
  10208a                99.99     15.61     20.39    3539.927
  -----------------------------------------------------------
  System                41.84     32.28     41.70    7315.379
  
  
  ********************
  Link Flow Summary
  ********************
  
  -----------------------------------------------------------------------------
                                 Maximum  Time of Max   Maximum    Max/    Max/
                                  |Flow|   Occurrence   |Veloc|    Full    Full
  Link                 Type          CFS  days hr:min    ft/sec    Flow   Depth
  -----------------------------------------------------------------------------
  1030e                CONDUIT      0.75     3  21:37      1.67    0.00    0.04
  1030                 CONDUIT     21.15    94  14:01      0.61    0.09    0.38
  1030a                CONDUIT     20.39    94  13:29      0.79    0.01    0.33
  1030b                CONDUIT      0.86     3  20:59      1.73    0.00    0.05
  1030c                CONDUIT      0.80     3  21:08      1.70    0.00    0.04
  1030d                CONDUIT      0.68     3  21:52      1.63    0.00    0.04
  1570                 CONDUIT      0.00     0  00:00      0.00    0.00    0.47
  1570a                CONDUIT      0.00     0  00:00      0.00    0.00    0.14
  1570b                CONDUIT      1.32     3  19:40      1.70    0.01    0.08
  1570c                CONDUIT      0.04     3  19:46      0.15    0.00    0.05
  1570d                CONDUIT      0.00     0  00:00      0.00    0.00    0.04
  1570e                CONDUIT      0.00     0  00:00      0.00    0.00    0.04
  1600                 CONDUIT     21.45    41  08:19      3.01    0.15    0.79
  1600a                CONDUIT     20.45    41  08:30      3.62    0.14    0.25
  1600b                CONDUIT      0.04     3  20:12      0.15    0.00    0.05
  1600c                CONDUIT      0.86     3  20:24      1.08    0.01    0.07
  1600d                CONDUIT      0.91     3  20:16      1.43    0.01    0.07
  1600e                CONDUIT      1.03     3  20:07      1.50    0.01    0.07
  1602                 CONDUIT     21.49    41  08:18      1.94    0.50    0.68
  1602a                CONDUIT     20.47    41  08:21      2.30    0.47    0.46
  1602b                CONDUIT      0.07     3  19:20      0.41    0.00    0.03
  1602c                CONDUIT      0.96     3  19:53      0.91    0.02    0.10
  1602d                CONDUIT      0.90     3  20:03      0.89    0.02    0.10
  1602e                CONDUIT      1.03     3  19:52      0.93    0.02    0.11
  1630                 CONDUIT     21.36    41  08:20      2.74    0.01    0.59
  1630a                CONDUIT     20.44    94  13:18      4.89    0.01    0.16
  1630b                CONDUIT      0.97     3  20:32      1.49    0.00    0.05
  1630c                CONDUIT      0.91     3  20:39      1.47    0.00    0.05
  1630d                CONDUIT      0.76     3  21:23      1.37    0.00    0.05
  1630e                CONDUIT      0.85     3  21:08      1.42    0.00    0.05
  8040                 CONDUIT     21.63    41  08:01      5.70    0.46    0.49
  8040a                CONDUIT     20.63    41  08:01      8.51    0.28    0.42
  8040b                CONDUIT      1.61     3  19:00      2.13    0.02    0.12
  8040c                CONDUIT      1.61     3  19:00      2.13    0.02    0.12
  8040d                CONDUIT      1.61     3  19:00      2.13    0.02    0.12
  8040e                CONDUIT      1.61     3  19:00      2.13    0.02    0.12
  8060                 CONDUIT     21.57    41  08:08      4.37    0.40    0.42
  8060a                CONDUIT     20.56    41  08:06      4.31    0.39    0.40
  8060b                CONDUIT      1.41     3  19:08      1.94    0.03    0.11
  8060c                CONDUIT      1.41     3  19:08      1.94    0.03    0.11
  8060d                CONDUIT      1.41     3  19:08      1.94    0.03    0.11
  8060e                CONDUIT      1.41     3  19:08      1.94    0.03    0.11
  8100                 CONDUIT      0.00     0  00:00      0.00    0.00    0.00
  8100a                CONDUIT      0.00     0  00:00      0.00    0.00    0.00
  8100b                CONDUIT      0.00     0  00:00      0.00    0.00    0.00
  8100c                CONDUIT      0.00     0  00:00      0.00    0.00    0.00
  8100d                CONDUIT      0.00     0  00:00      0.00    0.00    0.00
  8100e                CONDUIT      0.00     0  00:00      0.00    0.00    0.00
  8130                 CONDUIT      0.00     0  00:00      0.00    0.00    0.00
  8130a                CONDUIT      0.00     0  00:00      0.00    0.00    0.00
  8130b                CONDUIT      0.00     0  00:00      0.00    0.00    0.05
  8130c                CONDUIT      0.00     0  00:00      0.00    0.00    0.00
  8130d                CONDUIT      0.00     0  00:00      0.00    0.00    0.00
  8130e                CONDUIT      0.00     0  00:00      0.00    0.00    0.00
  Pump1                PUMP         0.00     0  00:00              0.00
  Pump2                PUMP         0.00     0  00:00              0.00
  Pump3                PUMP         0.00     0  00:00              0.00
  OR1@82309d-82308d    ORIFICE      0.40     3  20:13                      0.34
  OR1@82309b-15009b    ORIFICE      1.29     3  19:15                          
  WEIR1@82309c-15009c  WEIR         0.05     3  19:37                      0.01
  
  
  ***************************
  Flow Classification Summary
  ***************************
  
  -------------------------------------------------------------------------------------
                      Adjusted    ---------- Fraction of Time in Flow Class ---------- 
                       /Actual         Up    Down  Sub   Sup   Up    Down  Norm  Inlet 
  Conduit               Length    Dry  Dry   Dry   Crit  Crit  Crit  Crit  Ltd   Ctrl  
  -------------------------------------------------------------------------------------
  1030e                   1.00   0.50  0.00  0.00  0.50  0.00  0.00  0.00  0.00  0.00
  1030                    1.00   0.00  0.00  0.00  1.00  0.00  0.00  0.00  0.00  0.00
  1030a                   1.00   0.00  0.00  0.00  1.00  0.00  0.00  0.00  1.00  0.00
  1030b                   1.00   0.51  0.00  0.00  0.49  0.00  0.00  0.00  0.00  0.00
  1030c                   1.00   0.61  0.00  0.00  0.39  0.00  0.00  0.00  0.00  0.00
  1030d                   1.00   0.01  0.00  0.00  0.99  0.00  0.00  0.00  0.00  0.00
  1570                    1.00   0.00  1.00  0.00  0.00  0.00  0.00  0.00  0.00  0.00
  1570a                   1.00   0.00  1.00  0.00  0.00  0.00  0.00  0.00  0.00  0.00
  1570b                   1.00   0.24  0.43  0.00  0.34  0.00  0.00  0.00  0.92  0.00
  1570c                  15.05   0.55  0.45  0.00  0.00  0.00  0.00  0.00  0.99  0.00
  1570d                   1.00   0.01  0.99  0.00  0.00  0.00  0.00  0.00  0.00  0.00
  1570e                   1.00   0.40  0.60  0.00  0.00  0.00  0.00  0.00  0.00  0.00
  1600                    1.15   0.00  0.00  0.00  1.00  0.00  0.00  0.00  0.00  0.00
  1600a                   1.15   0.00  0.00  0.00  1.00  0.00  0.00  0.00  1.00  0.00
  1600b                   1.15   0.28  0.45  0.00  0.27  0.00  0.00  0.00  0.88  0.00
  1600c                   1.15   0.39  0.27  0.00  0.34  0.00  0.00  0.00  0.84  0.00
  1600d                   1.15   0.01  0.00  0.00  0.99  0.00  0.00  0.00  0.99  0.00
  1600e                   1.15   0.35  0.42  0.00  0.23  0.00  0.00  0.00  0.95  0.00
  1602                    1.00   0.00  0.00  0.00  1.00  0.00  0.00  0.00  1.00  0.00
  1602a                   1.00   0.00  0.00  0.00  1.00  0.00  0.00  0.00  0.00  0.00
  1602b                   1.00   0.72  0.13  0.00  0.15  0.00  0.00  0.00  0.03  0.00
  1602c                   1.00   0.02  0.00  0.00  0.98  0.00  0.00  0.00  0.12  0.00
  1602d                   1.00   0.01  0.00  0.00  0.99  0.00  0.00  0.00  0.00  0.00
  1602e                   1.00   0.03  0.00  0.00  0.97  0.00  0.00  0.00  0.20  0.00
  1630                    2.16   0.00  0.00  0.00  1.00  0.00  0.00  0.00  0.00  0.00
  1630a                   2.16   0.00  0.00  0.00  1.00  0.00  0.00  0.00  0.00  0.00
  1630b                   2.16   0.41  0.00  0.00  0.59  0.00  0.00  0.00  0.91  0.00
  1630c                   2.16   0.55  0.00  0.00  0.45  0.00  0.00  0.00  0.87  0.00
  1630d                   2.16   0.01  0.00  0.00  0.99  0.00  0.00  0.00  0.37  0.00
  1630e                   2.16   0.40  0.00  0.00  0.60  0.00  0.00  0.00  0.91  0.00
  8040                    1.00   0.00  0.00  0.00  1.00  0.00  0.00  0.00  0.00  0.00
  8040a                   1.00   0.00  0.00  0.00  1.00  0.00  0.00  0.00  1.00  0.00
  8040b                   1.00   0.01  0.61  0.00  0.38  0.00  0.00  0.00  0.97  0.00
  8040c                   1.00   0.01  0.61  0.00  0.38  0.00  0.00  0.00  0.97  0.00
  8040d                   1.00   0.01  0.61  0.00  0.38  0.00  0.00  0.00  0.97  0.00
  8040e                   1.00   0.01  0.61  0.00  0.38  0.00  0.00  0.00  0.97  0.00
  8060                    1.00   0.00  0.00  0.00  0.00  0.00  0.00  1.00  0.00  0.00
  8060a                   1.00   0.00  0.00  0.00  0.00  0.00  0.00  1.00  0.00  0.00
  8060b                   1.00   0.01  0.00  0.00  0.00  0.00  0.00  0.99  0.00  0.00
  8060c                   1.00   0.01  0.00  0.00  0.00  0.00  0.00  0.99  0.00  0.00
  8060d                   1.00   0.01  0.00  0.00  0.00  0.00  0.00  0.99  0.00  0.00
  8060e                   1.00   0.01  0.00  0.00  0.00  0.00  0.00  0.99  0.00  0.00
  8100                    1.00   1.00  0.00  0.00  0.00  0.00  0.00  0.00  0.00  0.00
  8100a                   1.00   1.00  0.00  0.00  0.00  0.00  0.00  0.00  0.00  0.00
  8100b                   1.00   1.00  0.00  0.00  0.00  0.00  0.00  0.00  0.00  0.00
  8100c                   1.00   1.00  0.00  0.00  0.00  0.00  0.00  0.00  0.00  0.00
  8100d                   1.00   1.00  0.00  0.00  0.00  0.00  0.00  0.00  0.00  0.00
  8100e                   1.00   1.00  0.00  0.00  0.00  0.00  0.00  0.00  0.00  0.00
  8130                    1.00   1.00  0.00  0.00  0.00  0.00  0.00  0.00  0.00  0.00
  8130a                   1.00   1.00  0.00  0.00  0.00  0.00  0.00  0.00  0.00  0.00
  8130b                   1.00   0.66  0.34  0.00  0.00  0.00  0.00  0.00  0.00  0.00
  8130c                   1.00   1.00  0.00  0.00  0.00  0.00  0.00  0.00  0.00  0.00
  8130d                   1.00   1.00  0.00  0.00  0.00  0.00  0.00  0.00  0.00  0.00
  8130e                   1.00   1.00  0.00  0.00  0.00  0.00  0.00  0.00  0.00  0.00
  
  
  *************************
  Conduit Surcharge Summary
  *************************
  
  No conduits were surcharged.
  
  
  ***************
  Pumping Summary
  ***************
  
  ---------------------------------------------------------------------------------------------------------
                                                  Min       Avg       Max     Total     Power    % Time Off
                        Percent   Number of      Flow      Flow      Flow    Volume     Usage    Pump Curve
  Pump                 Utilized   Start-Ups       CFS       CFS       CFS  10^6 gal     Kw-hr    Low   High
  ---------------------------------------------------------------------------------------------------------
  Pump1                    0.00           0      0.00      0.00      0.00     0.000      0.00    0.0    0.0
  Pump2                    0.00           0      0.00      0.00      0.00     0.000      0.00    0.0    0.0
  Pump3                    0.00           0      0.00      0.00      0.00     0.000      0.00    0.0    0.0
  

  Analysis begun on:  Wed Jan 02 04:46:05 2019
  Analysis ended on:  Wed Jan 02 04:47:09 2019
  Total elapsed time: 00:01:04