
  EPA STORM WATER MANAGEMENT MODEL - VERSION 5.1 (Build 5.1.012)
  --------------------------------------------------------------

       Example 1 of Extran Manual 
  
  WARNING 10: crest elevation raised to downstream invert for regulator Link INLETCURVE
  WARNING 10: crest elevation raised to downstream invert for regulator Link OLET-11
  WARNING 10: crest elevation raised to downstream invert for regulator Link OLET-13
  WARNING 10: crest elevation raised to downstream invert for regulator Link OLET-15
  WARNING 02: maximum depth increased for Node JCT-12
  WARNING 02: maximum depth increased for Node JCT-14
  
  *********************************************************
  NOTE: The summary statistics displayed in this report are
  based on results found at every computational time step,  
  not just on results from each reporting time step.
  *********************************************************
  
  ****************
  Analysis Options
  ****************
  Flow Units ............... CFS
  Process Models:
    Rainfall/Runoff ........ NO
    RDII ................... NO
    Snowmelt ............... NO
    Groundwater ............ NO
    Flow Routing ........... YES
    Ponding Allowed ........ NO
    Water Quality .......... NO
  Flow Routing Method ...... DYNWAVE
  Starting Date ............ 01/01/2002 00:00:00
  Ending Date .............. 01/01/2002 08:00:00
  Antecedent Dry Days ...... 0.0
  Report Time Step ......... 00:05:00
  Routing Time Step ........ 5.00 sec
  Variable Time Step ....... YES
  Maximum Trials ........... 8
  Number of Threads ........ 1
  Head Tolerance ........... 0.005000 ft
  
  
  **************************        Volume        Volume
  Flow Routing Continuity        acre-feet      10^6 gal
  **************************     ---------     ---------
  Dry Weather Inflow .......         0.000         0.000
  Wet Weather Inflow .......         0.000         0.000
  Groundwater Inflow .......         0.000         0.000
  RDII Inflow ..............         0.000         0.000
  External Inflow ..........        44.626        14.542
  External Outflow .........        27.827         9.068
  Flooding Loss ............        14.242         4.641
  Evaporation Loss .........         0.000         0.000
  Exfiltration Loss ........         0.000         0.000
  Initial Stored Volume ....         0.001         0.000
  Final Stored Volume ......         2.154         0.702
  Continuity Error (%) .....         0.906
  
  
  *************************
  Highest Continuity Errors
  *************************
  Node JCT-16 (32.49%)
  Node JCT-14 (1.57%)
  Node 16109 (1.38%)
  
  
  ***************************
  Time-Step Critical Elements
  ***************************
  None
  
  
  ********************************
  Highest Flow Instability Indexes
  ********************************
  Link OLET-17 (4)
  Link PIPE (4)
  Link MAJOR4 (3)
  
  
  *************************
  Routing Time Step Summary
  *************************
  Minimum Time Step           :     2.20 sec
  Average Time Step           :     4.99 sec
  Maximum Time Step           :     5.00 sec
  Percent in Steady State     :     0.00
  Average Iterations per Step :     2.07
  Percent Not Converging      :     0.17
  
  
  ******************
  Node Depth Summary
  ******************
  
  ---------------------------------------------------------------------------------
                                 Average  Maximum  Maximum  Time of Max    Reported
                                   Depth    Depth      HGL   Occurrence   Max Depth
  Node                 Type         Feet     Feet     Feet  days hr:min        Feet
  ---------------------------------------------------------------------------------
  10309                JUNCTION     1.61     2.57   104.17     0  03:06        2.57
  15009                JUNCTION     1.14     2.45   113.95     0  01:36        2.45
  16009                JUNCTION     1.73     2.75   104.75     0  03:03        2.75
  16109                JUNCTION     1.85     3.12   105.92     0  03:02        3.12
  80408                JUNCTION     0.33     0.74   125.34     0  00:22        0.74
  80608                JUNCTION     0.46     0.84   119.14     0  03:00        0.84
  81009                JUNCTION     1.11     2.84   131.04     0  00:31        2.84
  81309                JUNCTION     1.32     3.09   120.59     0  01:01        3.09
  82309                JUNCTION     2.40     4.92   117.22     0  01:21        4.92
  JCT-10               JUNCTION     0.10     0.26   128.86     0  02:23        0.26
  JCT-12               JUNCTION     0.26     0.60   122.90     0  00:38        0.60
  JCT-14               JUNCTION     0.64     1.00   117.30     0  01:01        1.00
  JCT-16               JUNCTION     0.34     0.63   112.93     0  05:50        0.61
  10208                OUTFALL      1.42     2.34    92.24     0  03:06        2.34
  
  
  *******************
  Node Inflow Summary
  *******************
  
  -------------------------------------------------------------------------------------------------
                                  Maximum  Maximum                  Lateral       Total        Flow
                                  Lateral    Total  Time of Max      Inflow      Inflow     Balance
                                   Inflow   Inflow   Occurrence      Volume      Volume       Error
  Node                 Type           CFS      CFS  days hr:min    10^6 gal    10^6 gal     Percent
  -------------------------------------------------------------------------------------------------
  10309                JUNCTION      0.00   101.08     0  03:03           0        9.12       0.602
  15009                JUNCTION      0.00    50.93     0  01:14           0        4.05      -0.018
  16009                JUNCTION      0.00   101.11     0  03:02           0         9.2       0.826
  16109                JUNCTION      0.00    51.25     0  03:00           0        5.22       1.396
  80408                JUNCTION      0.00     5.13     0  02:23           0       0.454      -0.454
  80608                JUNCTION      0.00     5.28     0  00:30           0       0.456      -0.596
  81009                JUNCTION     50.00    50.00     0  00:15        4.04        4.04      -0.511
  81309                JUNCTION      0.00    53.75     0  00:40           0        4.06       0.294
  82309                JUNCTION     40.00    45.94     0  01:01        3.23        4.05       0.052
  JCT-10               JUNCTION     45.00    45.00     0  00:15        3.64        3.64      -0.184
  JCT-12               JUNCTION     45.00    84.87     0  02:23        3.64        6.82      -0.321
  JCT-14               JUNCTION      0.00    87.62     0  00:44           0        6.83       1.596
  JCT-16               JUNCTION      0.00    14.95     0  04:25           0        1.74      48.136
  10208                OUTFALL       0.00   101.01     0  03:06           0        9.07       0.000
  
  
  **********************
  Node Surcharge Summary
  **********************
  
  Surcharging occurs when water rises above the top of the highest conduit.
  ---------------------------------------------------------------------
                                               Max. Height   Min. Depth
                                   Hours       Above Crown    Below Rim
  Node                 Type      Surcharged           Feet         Feet
  ---------------------------------------------------------------------
  JCT-12               JUNCTION        1.62          0.000        0.000
  JCT-14               JUNCTION        2.55          0.000        0.000
  JCT-16               JUNCTION        2.29          0.127       41.373
  
  
  *********************
  Node Flooding Summary
  *********************
  
  Flooding refers to all water that overflows a node, whether it ponds or not.
  --------------------------------------------------------------------------
                                                             Total   Maximum
                                 Maximum   Time of Max       Flood    Ponded
                        Hours       Rate    Occurrence      Volume     Depth
  Node                 Flooded       CFS   days hr:min    10^6 gal      Feet
  --------------------------------------------------------------------------
  JCT-12                  1.58      5.82      0  00:38       0.011     0.000
  JCT-14                  2.54     78.00      0  01:14       4.630     0.000
  
  
  ***********************
  Outfall Loading Summary
  ***********************
  
  -----------------------------------------------------------
                         Flow       Avg       Max       Total
                         Freq      Flow      Flow      Volume
  Outfall Node           Pcnt       CFS       CFS    10^6 gal
  -----------------------------------------------------------
  10208                 93.94     44.86    101.01       9.067
  -----------------------------------------------------------
  System                93.94     44.86    101.01       9.067
  
  
  ********************
  Link Flow Summary
  ********************
  
  -----------------------------------------------------------------------------
                                 Maximum  Time of Max   Maximum    Max/    Max/
                                  |Flow|   Occurrence   |Veloc|    Full    Full
  Link                 Type          CFS  days hr:min    ft/sec    Flow   Depth
  -----------------------------------------------------------------------------
  1030                 CONDUIT    101.01     0  03:06      5.58    0.03    0.27
  1570                 CONDUIT     50.42     0  01:36      4.60    0.41    0.47
  1602                 CONDUIT     45.99     0  03:00      2.76    1.06    0.80
  1630                 CONDUIT    101.08     0  03:03      5.29    0.04    0.30
  2                    CONDUIT      4.74     0  04:13      6.23    1.02    1.00
  8040                 CONDUIT      5.28     0  00:30      4.18    0.07    0.19
  8100                 CONDUIT     53.75     0  00:40      6.47    0.69    0.63
  8130                 CONDUIT     50.93     0  01:14      5.53    0.72    0.61
  MAJOR1               CONDUIT     39.87     0  02:23      1.64    0.33    0.76
  MAJOR2               CONDUIT     87.62     0  00:44      3.62    1.00    1.00
  MAJOR4               CONDUIT     14.95     0  04:25      0.66    1.04    1.00
  MINOR8060            CONDUIT      5.13     0  03:00      2.43    0.10    0.44
  PIPE                 CONDUIT     51.12     0  03:02      5.18    1.03    0.73
  INLETCURVE           DUMMY        0.00     0  00:00
  OLET-11              DUMMY        0.00     0  00:00
  OLET-13              DUMMY        0.00     0  00:00
  OLET-15              DUMMY        0.00     0  00:00
  OLET-17              DUMMY       14.16     0  04:32
  OLET-19              DUMMY        5.13     0  02:23
  
  
  ***************************
  Flow Classification Summary
  ***************************
  
  -------------------------------------------------------------------------------------
                      Adjusted    ---------- Fraction of Time in Flow Class ---------- 
                       /Actual         Up    Down  Sub   Sup   Up    Down  Norm  Inlet 
  Conduit               Length    Dry  Dry   Dry   Crit  Crit  Crit  Crit  Ltd   Ctrl  
  -------------------------------------------------------------------------------------
  1030                    1.00   0.03  0.00  0.00  0.97  0.00  0.00  0.00  0.00  0.00
  1570                    1.00   0.00  0.00  0.00  1.00  0.00  0.00  0.00  0.92  0.00
  1602                    1.00   0.00  0.00  0.00  1.00  0.00  0.00  0.00  0.56  0.00
  1630                    1.00   0.01  0.00  0.00  0.96  0.04  0.00  0.00  0.00  0.00
  2                       1.00   0.00  0.01  0.00  0.99  0.00  0.00  0.00  0.51  0.00
  8040                    1.00   0.00  0.00  0.00  0.96  0.04  0.00  0.00  0.94  0.00
  8100                    1.00   0.00  0.00  0.00  0.97  0.03  0.00  0.00  0.92  0.00
  8130                    1.00   0.00  0.00  0.00  0.97  0.03  0.00  0.00  0.59  0.00
  MAJOR1                  1.00   0.00  0.51  0.00  0.49  0.00  0.00  0.00  0.98  0.00
  MAJOR2                  1.00   0.00  0.00  0.00  0.94  0.06  0.00  0.00  0.61  0.00
  MAJOR4                  1.00   0.01  0.00  0.00  0.99  0.00  0.00  0.00  0.30  0.00
  MINOR8060               1.00   0.00  0.00  0.00  0.40  0.00  0.00  0.60  0.39  0.00
  PIPE                    1.00   0.00  0.00  0.00  0.97  0.03  0.00  0.00  0.29  0.00
  
  
  *************************
  Conduit Surcharge Summary
  *************************
  
  ----------------------------------------------------------------------------
                                                           Hours        Hours 
                         --------- Hours Full --------   Above Full   Capacity
  Conduit                Both Ends  Upstream  Dnstream   Normal Flow   Limited
  ----------------------------------------------------------------------------
  1602                        0.01      0.01      0.01      2.17         0.01
  2                           2.54      2.54      5.16      0.42         0.01
  MAJOR1                      0.01      0.01      2.78      0.01         0.01
  MAJOR2                      0.01      0.01      4.43      0.01         0.01
  MAJOR4                      1.09      4.85      2.28      0.72         0.83
  PIPE                        0.01      0.01      0.01      1.14         0.01
  

  Analysis begun on:  Wed Jan 02 04:46:02 2019
  Analysis ended on:  Wed Jan 02 04:46:02 2019
  Total elapsed time: < 1 sec