
  EPA STORM WATER MANAGEMENT MODEL - VERSION 5.1 (Build 5.1.012)
  --------------------------------------------------------------

  WARNING 04: minimum elevation drop used for Conduit OSR13OSR12
  WARNING 04: minimum elevation drop used for Conduit OSR5OSR4
  WARNING 04: minimum elevation drop used for Conduit ZPSL20EZPSL20F
  WARNING 02: maximum depth increased for Node A10B
  
  *********************************************************
  NOTE: The summary statistics displayed in this report are
  based on results found at every computational time step,  
  not just on results from each reporting time step.
  *********************************************************
  
  ****************
  Analysis Options
  ****************
  Flow Units ............... GPM
  Process Models:
    Rainfall/Runoff ........ NO
    RDII ................... NO
    Snowmelt ............... NO
    Groundwater ............ NO
    Flow Routing ........... YES
    Ponding Allowed ........ YES
    Water Quality .......... NO
  Flow Routing Method ...... DYNWAVE
  Starting Date ............ 07/02/2009 18:00:00
  Ending Date .............. 07/04/2009 00:00:00
  Antecedent Dry Days ...... 5.0
  Report Time Step ......... 00:01:00
  Routing Time Step ........ 30.00 sec
  Variable Time Step ....... YES
  Maximum Trials ........... 8
  Number of Threads ........ 1
  Head Tolerance ........... 0.001000 ft
  
  
  **************************        Volume        Volume
  Flow Routing Continuity        acre-feet      10^6 gal
  **************************     ---------     ---------
  Dry Weather Inflow .......       205.724        67.038
  Wet Weather Inflow .......         0.000         0.000
  Groundwater Inflow .......         0.000         0.000
  RDII Inflow ..............         0.000         0.000
  External Inflow ..........        16.832         5.485
  External Outflow .........       206.934        67.433
  Flooding Loss ............         0.004         0.001
  Evaporation Loss .........         0.000         0.000
  Exfiltration Loss ........         0.000         0.000
  Initial Stored Volume ....         0.008         0.002
  Final Stored Volume ......        13.860         4.516
  Continuity Error (%) .....         0.794
  
  
  *************************
  Highest Continuity Errors
  *************************
  Node LS#8WW (-142.88%)
  Node PSL9 (100.00%)
  Node LS#33WW (-95.70%)
  Node RR36 (38.30%)
  Node PEBBLEFM2 (14.23%)
  
  
  ***************************
  Time-Step Critical Elements
  ***************************
  Link PWI-P-C3-07 (99.44%)
  
  
  ********************************
  Highest Flow Instability Indexes
  ********************************
  Link PWI-P-C1-17 (8)
  Link PWI-P-C2-20 (6)
  Link PWI-P-C2-22 (6)
  Link PWI-P-C2-21 (6)
  Link PWI-P-C2-19 (5)
  
  
  *************************
  Routing Time Step Summary
  *************************
  Minimum Time Step           :     0.64 sec
  Average Time Step           :     7.12 sec
  Maximum Time Step           :     9.43 sec
  Percent in Steady State     :    -0.00
  Average Iterations per Step :     2.65
  Percent Not Converging      :     5.88
  
  
  ******************
  Node Depth Summary
  ******************
  
  ---------------------------------------------------------------------------------
                                 Average  Maximum  Maximum  Time of Max    Reported
                                   Depth    Depth      HGL   Occurrence   Max Depth
  Node                 Type         Feet     Feet     Feet  days hr:min        Feet
  ---------------------------------------------------------------------------------
  A10B                 JUNCTION     1.85     2.36  1681.86     0  15:40        2.35
  A12                  JUNCTION     0.22     0.25  1694.95     0  21:09        0.25
  A13                  JUNCTION     0.22     0.25  1695.51     0  21:08        0.25
  A14                  JUNCTION     0.22     0.25  1696.03     0  21:06        0.25
  A141                 JUNCTION     0.21     0.24  1695.98     0  21:07        0.24
  A1410                JUNCTION     0.10     0.12  1725.08     0  16:26        0.12
  A1411                JUNCTION     0.10     0.12  1730.20     0  16:14        0.12
  A1412                JUNCTION     0.10     0.12  1734.22     0  16:16        0.12
  A1413                JUNCTION     0.10     0.11  1740.37     0  16:11        0.11
  A1414                JUNCTION     0.10     0.11  1745.41     0  16:06        0.11
  A1415                JUNCTION     0.10     0.11  1750.10     0  16:02        0.11
  A142                 JUNCTION     0.00     0.00  1698.11     0  00:00        0.00
  A143                 JUNCTION     0.00     0.00  1699.52     0  00:00        0.00
  A144                 JUNCTION     0.00     0.00  1700.93     0  00:00        0.00
  A145                 JUNCTION     0.08     0.09  1702.48     0  17:00        0.09
  A146                 JUNCTION     0.10     0.12  1707.40     0  17:00        0.12
  A147                 JUNCTION     0.10     0.11  1713.55     0  16:39        0.11
  A148                 JUNCTION     0.12     0.13  1716.77     0  16:30        0.13
  A149                 JUNCTION     0.11     0.13  1719.97     0  17:00        0.13
  A15                  JUNCTION     0.18     0.20  1696.10     0  21:05        0.20
  A15A                 JUNCTION     0.22     0.25  1696.84     0  21:05        0.25
  A16                  JUNCTION     0.22     0.24  1697.54     0  21:03        0.24
  A16A                 JUNCTION     0.22     0.24  1697.52     0  21:04        0.24
  A17                  JUNCTION     0.21     0.23  1698.40     0  19:07        0.23
  A18                  JUNCTION     0.20     0.23  1699.03     0  19:05        0.23
  A19                  JUNCTION     0.15     0.17  1699.59     0  19:01        0.17
  A20                  JUNCTION     0.15     0.17  1700.35     0  19:00        0.17
  A21                  JUNCTION     0.15     0.17  1701.09     0  18:52        0.17
  A22                  JUNCTION     0.17     0.20  1702.24     0  18:58        0.20
  A23                  JUNCTION     0.15     0.17  1703.46     0  18:46        0.17
  A24                  JUNCTION     0.15     0.17  1704.56     0  18:40        0.17
  A25                  JUNCTION     0.14     0.16  1705.38     0  18:37        0.16
  A26                  JUNCTION     0.07     0.08  1706.13     0  20:34        0.08
  A27                  JUNCTION     0.07     0.08  1706.96     0  00:22        0.08
  A28                  JUNCTION     0.05     0.06  1708.22     0  00:02        0.06
  AA6                  JUNCTION     0.00     0.00  1693.14     0  00:00        0.00
  ACD3                 JUNCTION     0.57     0.67  1879.85     0  18:00        0.67
  AG38                 JUNCTION     0.07     0.08  2195.85     0  16:56        0.08
  AGS8                 JUNCTION     0.00     0.00  2234.65     0  00:00        0.00
  AGS9                 JUNCTION     0.00     0.00  2235.40     0  00:00        0.00
  AME1                 JUNCTION     0.55     0.66  1838.26     0  18:04        0.66
  BDS10                JUNCTION     0.24     0.28  2307.75     0  19:00        0.28
  BDS101               JUNCTION     0.16     0.19  2355.59     0  19:00        0.19
  BDS103               JUNCTION     0.14     0.17  2357.85     0  19:02        0.17
  BDS105               JUNCTION     0.34     0.39  2173.71     0  17:02        0.39
  BDS106               JUNCTION     0.36     0.41  2182.01     0  17:01        0.41
  BDS107               JUNCTION     0.31     0.35  2186.68     0  17:03        0.35
  BDS108               JUNCTION     0.35     0.40  2189.52     0  17:03        0.40
  BDS109               JUNCTION     0.31     0.35  2192.18     0  17:02        0.35
  BDS11                JUNCTION     0.23     0.26  2312.79     0  19:00        0.26
  BDS110               JUNCTION     0.29     0.33  2193.85     0  17:02        0.33
  BDS111               JUNCTION     0.29     0.33  2195.72     0  17:01        0.33
  BDS112               JUNCTION     0.36     0.41  2200.41     0  17:01        0.41
  BDS113               JUNCTION     0.34     0.38  2210.40     0  17:00        0.38
  BDS114               JUNCTION     0.42     0.48  2215.06     0  17:00        0.48
  BDS115               JUNCTION     0.32     0.37  2219.52     0  17:00        0.37
  BDS116               JUNCTION     0.37     0.42  2221.52     0  17:00        0.42
  BDS117               JUNCTION     0.31     0.35  2223.35     0  17:20        0.35
  BDS118               JUNCTION     0.31     0.35  2224.93     0  17:18        0.35
  BDS119               JUNCTION     0.22     0.25  2234.25     0  17:18        0.25
  BDS12                JUNCTION     0.21     0.24  2320.31     0  19:00        0.24
  BDS120               JUNCTION     0.27     0.31  2238.29     0  17:17        0.31
  BDS121               JUNCTION     0.28     0.33  2245.15     0  17:15        0.33
  BDS122               JUNCTION     0.38     0.44  2247.27     0  17:14        0.44
  BDS123               JUNCTION     0.37     0.43  2250.33     0  17:13        0.43
  BDS124               JUNCTION     0.33     0.37  2256.74     0  17:12        0.37
  BDS125               JUNCTION     0.28     0.32  2263.47     0  17:11        0.32
  BDS125A              JUNCTION     0.27     0.31  2263.72     0  17:10        0.31
  BDS126               JUNCTION     0.32     0.38  2265.90     0  17:11        0.38
  BDS13                JUNCTION     0.26     0.30  2322.22     0  19:00        0.30
  BDS14                JUNCTION     0.35     0.40  2323.16     0  19:00        0.40
  BDS15                JUNCTION     0.26     0.30  2323.68     0  16:11        0.30
  BDS16                JUNCTION     0.27     0.31  2324.14     0  16:59        0.31
  BDS17                JUNCTION     0.28     0.32  2324.54     0  17:00        0.32
  BDS18                JUNCTION     0.00     0.00  2325.06     0  00:00        0.00
  BDS19                JUNCTION     0.00     0.00  2325.90     0  00:00        0.00
  BDS193               JUNCTION     0.40     0.46  2265.87     0  17:10        0.46
  BDS194               JUNCTION     0.39     0.45  2266.38     0  17:07        0.45
  BDS195               JUNCTION     0.40     0.45  2267.09     0  17:06        0.45
  BDS196               JUNCTION     0.16     0.17  2267.54     0  21:52        0.17
  BDS197               JUNCTION     0.20     0.23  2268.40     0  21:43        0.23
  BDS198               JUNCTION     0.20     0.22  2269.18     0  00:11        0.22
  BDS199               JUNCTION     0.20     0.22  2269.60     0  20:42        0.22
  BDS2                 JUNCTION     0.19     0.22  2270.02     0  19:08        0.22
  BDS200               JUNCTION     0.20     0.22  2269.80     0  21:07        0.22
  BDS201               JUNCTION     0.13     0.14  2275.46     0  21:11        0.14
  BDS3                 JUNCTION     0.30     0.34  2271.52     0  19:08        0.34
  BDS4                 JUNCTION     0.24     0.27  2273.15     0  19:07        0.27
  BDS5                 JUNCTION     0.24     0.27  2278.21     0  19:06        0.27
  BDS6                 JUNCTION     0.21     0.24  2285.59     0  19:05        0.24
  BDS7                 JUNCTION     0.28     0.32  2288.30     0  19:04        0.32
  BDS8                 JUNCTION     0.20     0.23  2300.92     0  19:03        0.23
  BDS86                JUNCTION     0.10     0.11  2327.86     0  19:01        0.11
  BDS87                JUNCTION     0.16     0.19  2329.77     0  19:01        0.19
  BDS89                JUNCTION     0.16     0.19  2333.29     0  19:00        0.19
  BDS9                 JUNCTION     0.25     0.28  2306.03     0  19:02        0.28
  BDS91                JUNCTION     0.17     0.19  2336.39     0  19:00        0.19
  BDS93                JUNCTION     0.17     0.19  2339.69     0  19:00        0.19
  BDS95                JUNCTION     0.16     0.18  2343.73     0  19:00        0.18
  BDS99                JUNCTION     0.13     0.15  2351.85     0  19:00        0.15
  BEL1                 JUNCTION     0.21     0.23  2222.33     0  21:13        0.23
  BER44                JUNCTION     0.17     0.20  2215.38     0  17:00        0.20
  BER45                JUNCTION     0.18     0.21  2215.81     0  17:00        0.21
  BER46                JUNCTION     0.18     0.21  2217.04     0  17:00        0.21
  BER46A               JUNCTION     0.18     0.21  2217.17     0  17:00        0.21
  BER47                JUNCTION     0.17     0.20  2217.52     0  17:01        0.20
  BER47A               JUNCTION     0.23     0.27  2217.90     0  17:00        0.27
  BER48                JUNCTION     0.15     0.17  2218.81     0  17:00        0.17
  BER49                JUNCTION     0.12     0.14  2221.68     0  17:00        0.14
  BPS1                 JUNCTION     0.31     0.36  2238.64     0  17:00        0.36
  BPT1                 JUNCTION     0.11     0.13  2244.17     0  17:00        0.13
  BPT2                 JUNCTION     0.05     0.06  2250.69     0  17:00        0.06
  BPT2A                JUNCTION     0.06     0.07  2252.91     0  16:10        0.07
  BPY1                 JUNCTION     0.21     0.25  2219.79     0  17:01        0.25
  BS10                 JUNCTION     0.24     0.29  2171.62     0  17:07        0.29
  BS11                 JUNCTION     0.25     0.29  2173.39     0  17:04        0.29
  BS12                 JUNCTION     0.25     0.30  2175.17     0  17:02        0.30
  BS13                 JUNCTION     0.25     0.29  2176.93     0  17:01        0.29
  BS14                 JUNCTION     0.25     0.29  2178.69     0  17:00        0.29
  BS15                 JUNCTION     0.24     0.28  2180.46     0  17:01        0.28
  BS16                 JUNCTION     0.13     0.15  2191.77     0  17:00        0.15
  BS17                 JUNCTION     0.21     0.25  2193.66     0  17:00        0.25
  BS18                 JUNCTION     0.21     0.25  2195.57     0  17:00        0.25
  BS19                 JUNCTION     0.20     0.23  2196.81     0  17:00        0.23
  BS49                 JUNCTION     0.25     0.29  2166.71     0  17:00        0.29
  BUC1                 JUNCTION     0.22     0.26  2094.45     0  17:05        0.26
  BUC2                 JUNCTION     0.29     0.33  2101.41     0  17:00        0.33
  BUC23                JUNCTION     0.32     0.37  2110.42     0  17:00        0.37
  BUC25                JUNCTION     0.32     0.38  2111.47     0  17:00        0.38
  BUC27                JUNCTION     0.32     0.38  2113.22     0  17:00        0.38
  BUC3                 JUNCTION     0.33     0.39  2102.15     0  17:00        0.39
  BUC30                JUNCTION     0.23     0.27  2114.82     0  17:00        0.27
  BUC35                JUNCTION     0.24     0.28  2111.91     0  17:04        0.28
  BUC4                 JUNCTION     0.33     0.38  2102.50     0  17:00        0.38
  BUC5                 JUNCTION     0.27     0.31  2104.63     0  17:01        0.31
  BUC6                 JUNCTION     0.24     0.28  2108.25     0  17:01        0.28
  BUC7                 JUNCTION     0.33     0.39  2109.36     0  17:00        0.39
  BV23                 JUNCTION     0.17     0.22  1883.25     0  00:20        0.22
  BV24                 JUNCTION     0.15     0.25  1886.86     0  00:14        0.24
  BV25                 JUNCTION     0.10     0.15  1897.67     0  00:13        0.15
  BV26                 JUNCTION     0.06     0.13  1899.53     0  00:12        0.13
  BV27                 JUNCTION     0.08     0.15  1903.65     0  00:12        0.15
  BV28                 JUNCTION     0.07     0.18  1909.60     0  00:10        0.18
  BV54                 JUNCTION     0.09     0.21  1913.44     0  00:08        0.21
  BV55                 JUNCTION     0.08     0.21  1917.46     0  00:07        0.21
  BV56                 JUNCTION     0.07     0.19  1924.16     0  00:05        0.18
  BV57                 JUNCTION     0.06     0.15  1936.99     0  00:05        0.14
  BVO1                 JUNCTION     0.20     0.24  1879.72     0  19:01        0.24
  BVO2                 JUNCTION     0.19     0.23  1881.01     0  00:30        0.23
  BVO3                 JUNCTION     0.17     0.21  1881.75     0  00:26        0.21
  BVO4                 JUNCTION     0.16     0.22  1882.54     0  00:22        0.22
  BVO5                 JUNCTION     0.10     0.16  1883.26     0  00:19        0.16
  CAN35                JUNCTION     0.07     0.08  2374.86     0  16:49        0.08
  CAN36                JUNCTION     0.11     0.13  2375.42     0  16:48        0.13
  CAN37                JUNCTION     0.11     0.13  2375.88     0  16:27        0.13
  CAN40                JUNCTION     0.11     0.13  2376.35     0  16:19        0.13
  CAN41                JUNCTION     0.11     0.13  2376.96     0  16:09        0.13
  CAN42                JUNCTION     0.11     0.13  2377.45     0  16:44        0.13
  CAN44                JUNCTION     0.11     0.13  2377.91     0  16:49        0.13
  CB100                JUNCTION     0.06     0.07  2254.80     0  17:00        0.07
  CB101                JUNCTION     0.00     0.00  2259.91     0  22:00        0.00
  CC54                 JUNCTION     0.24     0.28  2299.65     0  17:00        0.28
  CC58                 JUNCTION     0.25     0.29  2305.39     0  17:00        0.29
  CC62                 JUNCTION     0.13     0.16  2306.05     0  17:00        0.16
  CC63                 JUNCTION     0.13     0.15  2307.13     0  16:59        0.15
  CC64                 JUNCTION     0.11     0.13  2308.71     0  16:56        0.13
  CC66                 JUNCTION     0.11     0.13  2310.24     0  16:59        0.13
  CC68                 JUNCTION     0.11     0.13  2311.08     0  16:58        0.13
  CC80                 JUNCTION     0.12     0.14  2311.69     0  16:58        0.14
  CC82                 JUNCTION     0.14     0.16  2312.41     0  16:58        0.16
  CC84                 JUNCTION     0.13     0.15  2313.10     0  16:57        0.15
  CC92                 JUNCTION     0.13     0.15  2313.75     0  16:49        0.15
  CC93                 JUNCTION     0.16     0.18  2314.12     0  16:42        0.18
  CC94                 JUNCTION     0.13     0.15  2314.53     0  17:00        0.15
  CC95                 JUNCTION     0.13     0.15  2315.03     0  16:45        0.15
  CEE4                 JUNCTION     0.54     0.64  1946.54     0  17:22        0.64
  CON1                 JUNCTION     0.04     0.05  2068.76     0  16:39        0.05
  CON2                 JUNCTION     0.11     0.13  2068.25     0  17:00        0.13
  CON3                 JUNCTION     0.11     0.13  2066.41     0  17:00        0.13
  CON4                 JUNCTION     0.11     0.13  2065.33     0  17:00        0.13
  CON5                 JUNCTION     0.11     0.13  2063.92     0  17:00        0.13
  COU1                 JUNCTION     0.33     0.39  2142.25     0  17:00        0.39
  CP100                JUNCTION     0.28     0.32  2158.01     0  17:02        0.32
  CP101                JUNCTION     0.07     0.08  2158.20     0  17:02        0.08
  CP102                JUNCTION     0.14     0.16  2159.55     0  17:01        0.16
  CP103                JUNCTION     0.14     0.16  2159.76     0  16:45        0.16
  CP104                JUNCTION     0.14     0.16  2160.08     0  16:44        0.16
  CP105                JUNCTION     0.07     0.09  2161.90     0  16:43        0.09
  CP106                JUNCTION     0.14     0.16  2163.12     0  16:43        0.16
  CP107                JUNCTION     0.14     0.17  2164.02     0  16:12        0.17
  CP108                JUNCTION     0.14     0.16  2164.83     0  17:00        0.16
  CP109                JUNCTION     0.14     0.16  2165.38     0  16:23        0.16
  CQ1                  JUNCTION     0.20     0.22  1902.62     0  19:00        0.22
  CRS11                JUNCTION     0.26     0.30  1937.32     0  21:20        0.30
  CS35                 JUNCTION     0.24     0.28  1872.70     0  19:02        0.28
  CSP7B                JUNCTION     0.05     0.06  2092.61     0  17:00        0.06
  CSP7C                JUNCTION     0.06     0.06  2093.54     0  17:00        0.06
  CSR1                 JUNCTION     0.08     0.09  1894.91     0  17:00        0.09
  CSS1                 JUNCTION     0.03     0.03  2209.58     0  17:00        0.03
  CSS2                 JUNCTION     0.03     0.04  2213.77     0  17:00        0.04
  CYS1                 JUNCTION     0.50     0.59  2079.53     0  17:00        0.59
  CYS106               JUNCTION     0.36     0.43  2151.13     0  17:00        0.43
  CYS11                JUNCTION     0.37     0.42  2115.42     0  17:00        0.42
  CYS12                JUNCTION     0.31     0.36  2116.84     0  17:00        0.36
  CYS13                JUNCTION     0.31     0.36  2118.08     0  17:00        0.36
  CYS138               JUNCTION     0.36     0.42  2151.82     0  17:00        0.42
  CYS14                JUNCTION     0.29     0.34  2119.90     0  17:04        0.34
  CYS141               JUNCTION     0.36     0.42  2152.19     0  17:00        0.42
  CYS15                JUNCTION     0.26     0.31  2123.24     0  17:03        0.31
  CYS151               JUNCTION     0.20     0.25  2152.20     0  17:00        0.25
  CYS154               JUNCTION     0.11     0.13  2152.50     0  19:00        0.13
  CYS156               JUNCTION     0.10     0.11  2152.86     0  19:00        0.11
  CYS16                JUNCTION     0.26     0.30  2127.69     0  17:02        0.30
  CYS160               JUNCTION     0.08     0.09  2153.67     0  22:00        0.09
  CYS161               JUNCTION     0.08     0.09  2154.53     0  22:00        0.09
  CYS190               JUNCTION     0.29     0.34  2158.45     0  16:59        0.34
  CYS2                 JUNCTION     0.47     0.56  2081.29     0  17:01        0.56
  CYS215               JUNCTION     0.12     0.14  2155.96     0  17:00        0.14
  CYS216               JUNCTION     0.33     0.39  2155.15     0  17:00        0.39
  CYS217               JUNCTION     0.05     0.06  2156.76     0  17:00        0.06
  CYS219               JUNCTION     0.05     0.05  2157.54     0  16:59        0.05
  CYS221               JUNCTION     0.03     0.03  2159.36     0  16:56        0.03
  CYS242               JUNCTION     0.31     0.36  2158.80     0  17:00        0.36
  CYS243               JUNCTION     0.18     0.21  2163.24     0  17:00        0.21
  CYS244               JUNCTION     0.18     0.21  2165.67     0  16:51        0.21
  CYS245               JUNCTION     0.16     0.18  2170.20     0  16:39        0.18
  CYS3                 JUNCTION     0.00     0.00  2082.95     0  00:00        0.00
  CYS369               JUNCTION     0.10     0.11  2172.82     0  16:28        0.11
  CYS4                 JUNCTION     0.32     0.38  2086.58     0  17:02        0.38
  CYS43                JUNCTION     0.29     0.34  2129.37     0  17:00        0.34
  CYS44                JUNCTION     0.27     0.31  2134.17     0  17:01        0.31
  CYS5                 JUNCTION     0.34     0.40  2089.21     0  17:01        0.40
  CYS54                JUNCTION     0.29     0.34  2136.11     0  17:00        0.34
  CYS6                 JUNCTION     0.38     0.44  2091.27     0  17:00        0.44
  CYS61                JUNCTION     0.25     0.29  2142.58     0  17:00        0.29
  CYS62                JUNCTION     0.32     0.38  2144.08     0  17:00        0.38
  CYS63                JUNCTION     0.31     0.36  2145.56     0  17:00        0.36
  CYS90                JUNCTION     0.30     0.36  2145.94     0  17:00        0.36
  CYS91                JUNCTION     0.29     0.34  2147.45     0  17:00        0.34
  CYS93                JUNCTION     0.29     0.34  2149.36     0  17:00        0.34
  CYS98                JUNCTION     0.38     0.44  2150.43     0  17:00        0.44
  CYS98A               JUNCTION     0.23     0.28  2153.52     0  17:01        0.28
  CYS98B               JUNCTION     0.34     0.40  2154.23     0  17:00        0.40
  CYS98C               JUNCTION     0.35     0.41  2154.92     0  17:00        0.41
  CYS98D               JUNCTION     0.31     0.37  2155.77     0  16:58        0.37
  CYS98E               JUNCTION     0.32     0.37  2156.65     0  16:56        0.37
  CYS98F               JUNCTION     0.32     0.37  2157.02     0  17:00        0.37
  CYS98G               JUNCTION     0.29     0.34  2157.83     0  16:59        0.34
  DH131                JUNCTION     0.13     0.14  1707.15     0  00:16        0.14
  DH150                JUNCTION     0.07     0.08  1752.49     0  19:10        0.08
  DH151                JUNCTION     0.08     0.09  1756.57     0  19:09        0.09
  DH152                JUNCTION     0.08     0.08  1760.70     0  19:07        0.08
  DH153                JUNCTION     0.07     0.08  1766.92     0  19:06        0.08
  DH154                JUNCTION     0.07     0.08  1772.88     0  19:04        0.08
  DH155                JUNCTION     0.04     0.05  1780.77     0  17:00        0.05
  DH156                JUNCTION     0.05     0.06  1786.11     0  16:24        0.06
  DH159                JUNCTION     0.04     0.04  1834.46     0  16:15        0.04
  DH160                JUNCTION     0.04     0.04  1852.29     0  16:11        0.04
  DH228                JUNCTION     0.41     0.48  1729.67     0  19:12        0.48
  DH242                JUNCTION     0.42     0.49  1728.33     0  19:14        0.49
  DH271                JUNCTION     0.28     0.33  1733.95     0  19:08        0.33
  DH282                JUNCTION     0.32     0.38  1735.99     0  19:07        0.38
  DOM1                 JUNCTION     0.38     0.45  2207.28     0  17:11        0.45
  DOM10                JUNCTION     0.31     0.36  2228.70     0  17:00        0.36
  DOM11                JUNCTION     0.31     0.36  2233.20     0  17:00        0.36
  DOM12                JUNCTION     0.31     0.36  2237.70     0  17:00        0.36
  DOM13                JUNCTION     0.31     0.36  2241.50     0  17:00        0.36
  DOM14                JUNCTION     0.28     0.32  2247.31     0  17:02        0.32
  DOM15                JUNCTION     0.22     0.25  2251.04     0  17:01        0.25
  DOM16                JUNCTION     0.27     0.32  2256.71     0  16:56        0.32
  DOM17                JUNCTION     0.24     0.28  2262.67     0  16:55        0.28
  DOM18                JUNCTION     0.30     0.35  2264.70     0  16:54        0.35
  DOM19                JUNCTION     0.32     0.37  2265.59     0  16:53        0.37
  DOM2                 JUNCTION     0.36     0.42  2209.25     0  17:10        0.42
  DOM20                JUNCTION     0.26     0.30  2266.55     0  17:00        0.30
  DOM21                JUNCTION     0.26     0.30  2267.65     0  16:45        0.30
  DOM22                JUNCTION     0.21     0.24  2269.04     0  16:54        0.24
  DOM23                JUNCTION     0.18     0.20  2273.85     0  16:44        0.20
  DOM24                JUNCTION     0.16     0.19  2277.04     0  16:40        0.19
  DOM3                 JUNCTION     0.36     0.42  2211.05     0  17:08        0.42
  DOM4                 JUNCTION     0.36     0.42  2213.05     0  17:08        0.42
  DOM5                 JUNCTION     0.32     0.38  2214.81     0  17:05        0.38
  DOM6                 JUNCTION     0.33     0.39  2217.04     0  17:04        0.39
  DOM7                 JUNCTION     0.44     0.51  2217.40     0  17:03        0.51
  DOM8                 JUNCTION     0.36     0.42  2219.31     0  17:03        0.42
  DOM9                 JUNCTION     0.33     0.38  2224.22     0  17:00        0.38
  DWA1                 JUNCTION     0.25     0.30  2240.10     0  16:29        0.30
  DY23                 JUNCTION     0.12     0.14  2059.03     0  16:53        0.14
  DY23A                JUNCTION     0.17     0.19  2060.91     0  16:11        0.19
  DY23B                JUNCTION     0.17     0.19  2062.20     0  16:02        0.19
  DY24                 JUNCTION     0.16     0.19  2057.24     0  16:59        0.19
  EA1                  JUNCTION     0.12     0.14  2016.43     0  19:24        0.14
  EA10                 JUNCTION     0.30     0.35  2026.02     0  16:34        0.35
  EA11                 JUNCTION     0.29     0.34  2026.11     0  16:37        0.34
  EA12                 JUNCTION     0.00     0.00  2026.86     0  00:00        0.00
  EA13                 JUNCTION     0.00     0.00  2026.93     0  00:00        0.00
  EA14                 JUNCTION     0.00     0.00  2027.01     0  00:00        0.00
  EA16                 JUNCTION     0.03     0.03  2028.44     0  16:02        0.03
  EA16A                JUNCTION     0.09     0.10  2026.25     0  16:07        0.10
  EA16B                JUNCTION     0.09     0.10  2025.49     0  16:19        0.10
  EA16C                JUNCTION     0.07     0.08  2024.51     0  16:23        0.08
  EA16D                JUNCTION     0.16     0.19  2024.29     0  17:19        0.19
  EA16E                JUNCTION     0.18     0.21  2024.29     0  17:17        0.21
  EA17                 JUNCTION     0.00     0.00  2037.30     0  00:00        0.00
  EA18                 JUNCTION     0.00     0.00  2039.70     0  00:00        0.00
  EA2                  JUNCTION     0.30     0.34  2017.84     0  19:24        0.34
  EA21                 JUNCTION     0.15     0.17  2045.06     0  19:00        0.17
  EA2A                 JUNCTION     0.28     0.31  2018.42     0  19:23        0.31
  EA2B                 JUNCTION     0.19     0.22  2019.89     0  19:22        0.22
  EA3                  JUNCTION     0.31     0.35  2020.34     0  19:21        0.35
  EA4                  JUNCTION     0.38     0.43  2020.90     0  19:20        0.43
  EA5                  JUNCTION     0.28     0.31  2022.27     0  19:17        0.31
  EA6                  JUNCTION     0.22     0.26  2022.85     0  17:03        0.26
  EA7                  JUNCTION     0.12     0.14  2024.25     0  16:56        0.14
  EA8                  JUNCTION     0.22     0.25  2025.05     0  16:54        0.25
  EA9                  JUNCTION     0.21     0.24  2025.72     0  16:48        0.24
  EE1                  JUNCTION     0.15     0.16  1891.29     0  17:03        0.16
  EES1                 JUNCTION     0.26     0.30  1756.74     0  17:00        0.30
  EEV1                 JUNCTION     0.04     0.05  1858.67     0  16:02        0.05
  EFL47                JUNCTION     0.26     0.31  2019.44     0  19:29        0.31
  EFL47A               JUNCTION     0.47     0.55  2021.52     0  19:28        0.55
  EFL48                JUNCTION     0.47     0.55  2023.51     0  19:27        0.55
  EFL49                JUNCTION     0.47     0.55  2025.61     0  19:26        0.55
  EFL50                JUNCTION     0.47     0.55  2026.50     0  19:26        0.55
  EG1                  JUNCTION     0.08     0.09  2046.39     0  21:16        0.09
  EG2                  JUNCTION     0.08     0.09  2050.99     0  21:16        0.09
  EG3                  JUNCTION     0.08     0.09  2054.99     0  21:14        0.09
  EG4                  JUNCTION     0.07     0.08  2062.77     0  21:12        0.08
  EPS17                JUNCTION     0.02     0.03  2132.95     0  19:03        0.03
  EPS17A               JUNCTION     0.04     0.05  2133.73     0  19:02        0.05
  EPS18                JUNCTION     0.03     0.03  2135.10     0  19:01        0.03
  EPS18A               JUNCTION     0.03     0.04  2136.42     0  19:00        0.04
  EPS18B               JUNCTION     0.02     0.03  2136.88     0  01:32        0.03
  EPS19                JUNCTION     0.03     0.03  2136.99     0  00:07        0.03
  EPV8                 JUNCTION     0.37     0.43  1863.87     0  19:05        0.43
  ET18                 JUNCTION     0.23     0.27  1804.96     0  19:02        0.27
  ET1A                 JUNCTION     0.00     0.00  1786.46     0  00:00        0.00
  ET2A                 JUNCTION     0.00     0.00  1792.60     0  00:00        0.00
  ET9                  JUNCTION     0.00     0.00  1796.61     0  00:00        0.00
  ET9A                 JUNCTION     0.00     0.00  1796.33     0  00:00        0.00
  EXP1                 JUNCTION     0.17     0.19  2182.78     0  17:00        0.19
  EXP14                JUNCTION     0.22     0.25  2193.42     0  17:00        0.25
  EXP2                 JUNCTION     0.17     0.19  2183.78     0  17:00        0.19
  EXP3                 JUNCTION     0.16     0.19  2184.92     0  17:00        0.19
  EXP4                 JUNCTION     0.11     0.13  2185.85     0  17:00        0.13
  EXP5                 JUNCTION     0.11     0.13  2186.84     0  17:00        0.13
  EXP6                 JUNCTION     0.04     0.04  2188.55     0  17:00        0.04
  EXP6A                JUNCTION     0.04     0.04  2189.24     0  16:35        0.04
  EXP6B                JUNCTION     0.03     0.04  2191.55     0  17:00        0.04
  FAS11                JUNCTION     0.32     0.37  2167.48     0  17:11        0.37
  FAS12                JUNCTION     0.38     0.43  2169.58     0  17:10        0.43
  FAS13                JUNCTION     0.38     0.43  2170.41     0  17:08        0.43
  FAS14                JUNCTION     0.38     0.43  2172.43     0  17:07        0.43
  FAS15                JUNCTION     0.38     0.43  2174.14     0  17:05        0.43
  FAS16                JUNCTION     0.25     0.29  2174.55     0  17:05        0.29
  FAS17                JUNCTION     0.28     0.32  2174.62     0  17:04        0.32
  FAS9                 JUNCTION     0.26     0.30  2162.58     0  17:00        0.30
  FL2-NEW              JUNCTION     2.07     2.80  1683.75     0  15:39        2.80
  FOM1                 JUNCTION     0.29     0.34  2172.06     0  17:00        0.34
  FOM10                JUNCTION     0.24     0.28  2201.91     0  17:00        0.28
  FOM11                JUNCTION     0.09     0.11  2202.85     0  17:04        0.11
  FOM12                JUNCTION     0.12     0.14  2203.25     0  16:53        0.14
  FOM13                JUNCTION     0.10     0.11  2203.87     0  16:52        0.11
  FOM14                JUNCTION     0.10     0.11  2204.86     0  16:40        0.11
  FOM15                JUNCTION     0.10     0.11  2205.85     0  17:01        0.11
  FOM16                JUNCTION     0.10     0.11  2206.76     0  17:00        0.11
  FOM1A                JUNCTION     0.31     0.36  2173.57     0  17:00        0.36
  FOM2                 JUNCTION     0.31     0.37  2178.71     0  17:01        0.37
  FOM3                 JUNCTION     0.39     0.47  2181.55     0  17:00        0.47
  FOM4                 JUNCTION     0.36     0.42  2182.12     0  17:00        0.42
  FOM5                 JUNCTION     0.31     0.36  2188.66     0  17:00        0.36
  FOM6                 JUNCTION     0.25     0.29  2190.64     0  17:00        0.29
  FOM7                 JUNCTION     0.28     0.33  2196.62     0  17:00        0.33
  FOM7A                JUNCTION     0.37     0.43  2197.43     0  17:00        0.43
  FOM8                 JUNCTION     0.23     0.27  2198.40     0  17:00        0.27
  FOM9                 JUNCTION     0.23     0.27  2200.23     0  17:00        0.27
  FRE10                JUNCTION     0.10     0.12  2047.51     0  17:08        0.12
  FRE12                JUNCTION     0.12     0.13  2048.42     0  17:06        0.13
  FRE14                JUNCTION     0.11     0.13  2048.87     0  17:05        0.13
  FRE15                JUNCTION     0.12     0.13  2049.97     0  17:04        0.13
  FRE17                JUNCTION     0.11     0.13  2050.53     0  17:00        0.13
  FRE18                JUNCTION     0.18     0.21  2048.92     0  17:03        0.21
  FRE2                 JUNCTION     0.45     0.54  2031.94     0  17:16        0.54
  FRE20                JUNCTION     0.20     0.24  2050.05     0  17:03        0.24
  FRE22                JUNCTION     0.20     0.24  2050.95     0  17:02        0.24
  FRE24                JUNCTION     0.20     0.24  2051.84     0  17:01        0.24
  FRE26                JUNCTION     0.20     0.24  2052.74     0  17:00        0.24
  FRE28                JUNCTION     0.20     0.24  2053.66     0  17:00        0.24
  FRE2A                JUNCTION     0.58     0.69  2033.57     0  17:15        0.69
  FRE3                 JUNCTION     0.57     0.68  2034.48     0  17:14        0.68
  FRE30                JUNCTION     0.20     0.24  2054.56     0  17:00        0.24
  FRE32                JUNCTION     0.20     0.24  2055.45     0  17:00        0.24
  FRE35                JUNCTION     0.11     0.13  2050.88     0  17:00        0.13
  FRE36                JUNCTION     0.09     0.11  2051.74     0  17:00        0.11
  FRE37                JUNCTION     0.09     0.11  2052.58     0  17:00        0.11
  FRE38                JUNCTION     0.05     0.06  2053.57     0  17:00        0.06
  FRE39                JUNCTION     0.04     0.05  2054.22     0  16:59        0.05
  FRE3A                JUNCTION     0.57     0.68  2035.34     0  17:14        0.68
  FRE4                 JUNCTION     0.57     0.68  2036.88     0  17:13        0.68
  FRE40                JUNCTION     0.04     0.05  2053.98     0  00:09        0.05
  FRE41                JUNCTION     0.07     0.08  2051.99     0  17:00        0.08
  FRE42                JUNCTION     0.07     0.08  2053.35     0  17:00        0.08
  FRE43                JUNCTION     0.07     0.08  2054.49     0  16:57        0.08
  FRE4A                JUNCTION     0.57     0.68  2038.01     0  17:12        0.68
  FRE5                 JUNCTION     0.55     0.66  2039.26     0  17:13        0.66
  FRE6                 JUNCTION     0.55     0.66  2041.66     0  17:12        0.66
  FRE7                 JUNCTION     0.09     0.11  2045.56     0  17:08        0.11
  FRE8                 JUNCTION     0.25     0.29  2046.39     0  17:07        0.29
  FRE9                 JUNCTION     0.23     0.27  2047.01     0  17:07        0.27
  GH100                JUNCTION     0.47     0.66  2145.96     0  18:54        0.66
  GH101                JUNCTION     0.16     0.19  2157.16     0  17:03        0.19
  GH102                JUNCTION     0.19     0.22  2160.27     0  17:02        0.22
  GH103                JUNCTION     0.21     0.24  2161.62     0  17:01        0.24
  GH104                JUNCTION     0.21     0.24  2163.01     0  17:01        0.24
  GH105                JUNCTION     0.21     0.24  2163.52     0  17:00        0.24
  GH106                JUNCTION     0.21     0.25  2166.19     0  17:00        0.25
  GH106A               JUNCTION     0.21     0.25  2166.87     0  16:08        0.25
  GH107                JUNCTION     0.21     0.25  2168.42     0  16:36        0.25
  GH108                JUNCTION     0.23     0.27  2170.12     0  16:35        0.27
  GIL1                 JUNCTION     0.00     0.00  2195.95     0  00:00        0.00
  GIL10                JUNCTION     0.55     0.63  2203.79     0  18:16        0.63
  GIL11                JUNCTION     0.31     0.37  2203.82     0  18:15        0.37
  GIL2                 JUNCTION     1.29     1.41  2197.81     0  18:20        1.41
  GIL3                 JUNCTION     0.98     1.11  2197.98     0  18:21        1.11
  GIL4                 JUNCTION     0.81     0.92  2198.35     0  18:20        0.92
  GIL5                 JUNCTION     0.83     0.93  2198.46     0  18:19        0.93
  GIL8                 JUNCTION     0.58     0.65  2201.29     0  18:18        0.65
  GIL9                 JUNCTION     0.63     0.71  2203.73     0  18:17        0.71
  GM3                  JUNCTION     0.34     0.38  2216.54     0  17:00        0.38
  GRS1                 JUNCTION     0.82     0.94  2195.10     0  18:22        0.94
  GRS10                JUNCTION     0.00     0.00  2180.67     0  00:00        0.00
  GRS11                JUNCTION     0.00     0.00  2178.83     0  00:00        0.00
  GRS12                JUNCTION     0.00     0.00  2177.00     0  00:00        0.00
  GRS13                JUNCTION     0.00     0.00  2175.48     0  00:00        0.00
  GRS1A                JUNCTION     1.30     1.42  2197.81     0  18:21        1.42
  GRS2                 JUNCTION     0.85     0.98  2192.45     0  18:24        0.98
  GRS3                 JUNCTION     0.88     1.01  2190.40     0  18:25        1.01
  GRS4                 JUNCTION     0.83     0.95  2188.85     0  18:27        0.95
  GRS5                 JUNCTION     0.77     0.89  2186.84     0  18:28        0.89
  GRS7                 JUNCTION     0.00     0.00  2184.15     0  00:00        0.00
  GRS8                 JUNCTION     0.00     0.00  2182.33     0  00:00        0.00
  GRS9                 JUNCTION     0.00     0.00  2180.71     0  00:00        0.00
  GSR1                 JUNCTION     0.33     0.38  2189.95     0  17:00        0.38
  HG1                  JUNCTION     0.13     0.15  2096.36     0  17:00        0.15
  HG2                  JUNCTION     0.13     0.15  2101.15     0  17:00        0.15
  HG3                  JUNCTION     0.19     0.22  2102.62     0  17:00        0.22
  HG4                  JUNCTION     0.18     0.21  2103.73     0  17:00        0.21
  HNT1                 JUNCTION     0.14     0.17  2211.06     0  17:00        0.17
  HNT16                JUNCTION     0.05     0.06  2214.53     0  17:05        0.06
  HNT17                JUNCTION     0.05     0.06  2220.56     0  17:03        0.06
  HNT18                JUNCTION     0.04     0.05  2230.10     0  17:01        0.05
  HNT2                 JUNCTION     0.22     0.26  2212.01     0  17:00        0.26
  HNT3                 JUNCTION     0.20     0.24  2213.03     0  17:00        0.24
  HNT4                 JUNCTION     0.18     0.22  2214.41     0  17:01        0.22
  HOL1                 JUNCTION     0.17     0.21  1957.93     0  00:11        0.21
  HOL12                JUNCTION     0.07     0.12  1963.55     0  00:10        0.12
  HOL2                 JUNCTION     0.18     0.34  1964.53     0  00:09        0.34
  HOL24                JUNCTION     0.09     0.11  1983.42     0  19:08        0.11
  HOL25                JUNCTION     0.11     0.13  1984.80     0  18:32        0.13
  HOL3                 JUNCTION     0.17     0.33  1965.43     0  00:08        0.33
  HOL4                 JUNCTION     0.01     0.27  1970.98     0  00:08        0.27
  HOR1                 JUNCTION     0.20     0.23  2094.68     0  17:00        0.23
  HOR10                JUNCTION     0.20     0.24  2104.49     0  17:00        0.24
  HOR11                JUNCTION     0.10     0.12  2106.06     0  17:00        0.12
  HOR12                JUNCTION     0.10     0.12  2107.32     0  17:00        0.12
  HOR1P                JUNCTION     0.36     0.41  2044.54     0  17:00        0.41
  HOR2                 JUNCTION     0.24     0.28  2094.86     0  17:00        0.28
  HOR25                JUNCTION     0.07     0.08  2109.03     0  16:58        0.08
  HOR28                JUNCTION     0.06     0.07  2116.34     0  16:59        0.07
  HOR2P                JUNCTION     0.18     0.21  2046.82     0  17:00        0.21
  HOR3                 JUNCTION     0.25     0.29  2095.70     0  17:00        0.29
  HOR30                JUNCTION     0.04     0.05  2125.12     0  16:58        0.05
  HOR32                JUNCTION     0.04     0.05  2126.71     0  17:00        0.05
  HOR33                JUNCTION     0.10     0.11  2109.42     0  17:00        0.11
  HOR3P                JUNCTION     0.18     0.21  2048.71     0  17:00        0.21
  HOR6                 JUNCTION     0.18     0.21  2099.10     0  17:00        0.21
  HOR9                 JUNCTION     0.13     0.15  2103.21     0  17:00        0.15
  HP60                 JUNCTION     0.03     0.04  2218.15     0  21:29        0.04
  HP61                 JUNCTION     0.08     0.09  2219.14     0  21:03        0.09
  HS35                 JUNCTION     0.13     0.15  2215.10     0  17:00        0.15
  HUE37                JUNCTION     0.11     0.12  2133.26     0  18:14        0.12
  HUE38                JUNCTION     0.11     0.12  2137.18     0  18:10        0.12
  HUE38A               JUNCTION     0.11     0.12  2138.51     0  18:08        0.12
  HUE38B               JUNCTION     0.12     0.13  2139.38     0  18:08        0.13
  HUE38C               JUNCTION     0.12     0.13  2140.17     0  18:07        0.13
  HUE38D               JUNCTION     0.10     0.10  2143.58     0  18:06        0.10
  HUE38E               JUNCTION     0.12     0.13  2147.51     0  18:05        0.13
  HUE38F               JUNCTION     0.17     0.19  2147.82     0  17:01        0.19
  HUE38G               JUNCTION     0.00     0.00  2150.67     0  21:55        0.00
  HUE59                JUNCTION     0.16     0.19  2147.86     0  17:00        0.19
  HUE60                JUNCTION     0.05     0.05  2157.24     0  16:41        0.05
  HUE61                JUNCTION     0.05     0.05  2164.62     0  16:56        0.05
  HVS1                 JUNCTION     0.25     0.29  1893.99     0  19:00        0.29
  HVS3                 JUNCTION     0.21     0.24  1898.16     0  19:00        0.24
  HZ1                  JUNCTION     0.67     0.78  1824.27     0  00:02        0.78
  IH1                  JUNCTION     0.30     0.33  2193.07     0  19:00        0.33
  IH5                  JUNCTION     0.24     0.27  2193.67     0  17:00        0.27
  IRV1                 JUNCTION     0.20     0.22  2294.99     0  19:00        0.22
  JCT-16               JUNCTION     0.37     0.54  2053.57     0  19:08        0.54
  JCT-18               JUNCTION     0.13     0.15  2053.18     0  19:08        0.15
  KBS1                 JUNCTION     0.41     0.48  2160.64     0  17:14        0.48
  KBS10                JUNCTION     0.34     0.40  2187.81     0  17:05        0.40
  KBS11                JUNCTION     0.33     0.38  2192.46     0  17:05        0.38
  KBS2                 JUNCTION     0.46     0.53  2162.36     0  17:12        0.53
  KBS3                 JUNCTION     0.45     0.53  2163.70     0  17:12        0.53
  KBS4                 JUNCTION     0.43     0.51  2165.03     0  17:10        0.51
  KBS5                 JUNCTION     0.44     0.52  2166.40     0  17:10        0.52
  KBS6                 JUNCTION     0.43     0.51  2168.11     0  17:09        0.51
  KBS7                 JUNCTION     0.43     0.51  2169.84     0  17:08        0.51
  KBS8                 JUNCTION     0.19     0.23  2181.50     0  17:07        0.23
  KBS9                 JUNCTION     0.33     0.38  2184.05     0  17:06        0.38
  LBE3                 JUNCTION     0.59     0.70  1827.99     0  18:05        0.70
  LBE6                 JUNCTION     0.58     0.69  1831.10     0  18:05        0.69
  LFS1                 JUNCTION     0.16     0.17  2222.66     0  21:40        0.17
  LFS2                 JUNCTION     0.16     0.18  2224.05     0  21:59        0.18
  LFS3                 JUNCTION     0.41     0.48  2226.15     0  20:52        0.48
  LFS4                 JUNCTION     0.41     0.47  2227.08     0  21:15        0.47
  LG1                  JUNCTION     0.15     0.16  2285.04     0  19:00        0.16
  LHP1                 JUNCTION     0.55     0.64  2079.23     0  17:00        0.64
  LHP10                JUNCTION     0.26     0.31  2092.53     0  17:00        0.31
  LIB1                 JUNCTION     0.06     0.07  2257.13     0  17:00        0.07
  LLG1                 JUNCTION     0.01     0.01  2264.95     0  22:00        0.01
  LLG2                 JUNCTION     0.01     0.02  2266.68     0  22:00        0.02
  LLG37                JUNCTION     0.46     0.52  2182.24     0  17:01        0.52
  LLG38                JUNCTION     0.00     0.00  2185.35     0  00:00        0.00
  LLG39                JUNCTION     0.00     0.00  2186.48     0  00:00        0.00
  LME1                 JUNCTION     0.01     0.02  1934.72     0  22:01        0.02
  LME3                 JUNCTION     0.02     0.02  1938.18     0  00:11        0.02
  LMP1                 JUNCTION     0.21     0.25  2208.82     0  17:00        0.25
  LMP2                 JUNCTION     0.29     0.34  2211.36     0  19:00        0.34
  LMP3                 JUNCTION     0.29     0.34  2213.81     0  19:00        0.34
  LMP4                 JUNCTION     0.21     0.24  2218.70     0  19:00        0.24
  LMP5                 JUNCTION     0.13     0.15  2237.82     0  17:00        0.15
  LMP6                 JUNCTION     0.19     0.22  2242.83     0  17:00        0.22
  LMP7                 JUNCTION     0.23     0.26  2245.32     0  16:05        0.26
  LMP8                 JUNCTION     0.17     0.20  2248.49     0  17:00        0.20
  LMP8E                JUNCTION     0.01     0.01  2260.02     0  22:00        0.01
  LMV1                 JUNCTION     0.57     0.68  2038.60     0  17:11        0.68
  LMV10                JUNCTION     0.13     0.15  2043.54     0  17:00        0.15
  LMV102               JUNCTION     0.09     0.10  2028.07     0  16:01        0.10
  LMV105               JUNCTION     0.07     0.08  2025.15     0  19:00        0.08
  LMV12                JUNCTION     0.12     0.14  2044.18     0  17:00        0.14
  LMV2                 JUNCTION     0.18     0.20  2039.26     0  17:02        0.20
  LMV3                 JUNCTION     0.18     0.20  2040.01     0  17:01        0.20
  LMV31                JUNCTION     0.29     0.34  2026.16     0  16:37        0.34
  LMV32                JUNCTION     0.14     0.17  2030.98     0  16:23        0.17
  LMV33                JUNCTION     0.21     0.25  2032.21     0  16:12        0.25
  LMV33A               JUNCTION     0.20     0.24  2032.48     0  16:12        0.24
  LMV34                JUNCTION     0.20     0.24  2033.19     0  16:08        0.24
  LMV35                JUNCTION     0.20     0.23  2034.17     0  16:03        0.23
  LMV4                 JUNCTION     0.18     0.20  2041.01     0  17:00        0.20
  LMV5                 JUNCTION     0.16     0.18  2042.07     0  17:00        0.18
  LMV6                 JUNCTION     0.15     0.18  2042.47     0  16:47        0.18
  LMV7                 JUNCTION     0.15     0.18  2043.03     0  16:14        0.18
  LMV82                JUNCTION     0.09     0.10  2024.80     0  19:00        0.10
  LMV82A               JUNCTION     0.22     0.26  2023.38     0  16:59        0.26
  LMV83                JUNCTION     0.09     0.10  2025.87     0  19:00        0.10
  LMV92                JUNCTION     0.09     0.10  2026.49     0  19:00        0.10
  LMV97                JUNCTION     0.09     0.10  2027.41     0  19:00        0.10
  LMV98                JUNCTION     0.09     0.10  2028.01     0  19:00        0.10
  LNH1                 JUNCTION     0.44     0.49  2018.89     0  21:25        0.49
  LNH2                 JUNCTION     0.50     0.56  2021.96     0  21:24        0.56
  LNH3                 JUNCTION     0.32     0.36  2023.56     0  21:23        0.36
  LP20                 JUNCTION     0.00     0.01  2242.38     0  19:01        0.01
  LP21                 JUNCTION     0.01     0.01  2244.34     0  17:02        0.01
  LP22                 JUNCTION     0.01     0.01  2245.53     0  17:00        0.01
  LQ1                  JUNCTION     0.24     0.28  1869.38     0  19:03        0.28
  LS#30                JUNCTION     0.31    27.72  1966.30     0  00:01       15.02
  LS#33                JUNCTION     0.02     0.26  2053.93     0  00:00        0.25
  LS#8                 JUNCTION     0.07    33.37  2005.81     0  00:01       21.57
  MA1                  JUNCTION     0.18     0.21  1756.41     0  17:00        0.21
  MA10A                JUNCTION     0.06     0.07  1801.10     0  19:00        0.07
  MA11                 JUNCTION     0.06     0.07  1804.40     0  19:00        0.07
  MA12                 JUNCTION     0.07     0.08  1818.65     0  19:00        0.08
  MA13                 JUNCTION     0.04     0.04  1819.82     0  22:00        0.04
  MA14                 JUNCTION     0.04     0.04  1821.23     0  00:09        0.04
  MA2                  JUNCTION     0.16     0.19  1761.39     0  17:00        0.19
  MA3                  JUNCTION     0.17     0.20  1766.40     0  17:00        0.20
  MA4                  JUNCTION     0.17     0.20  1771.40     0  17:00        0.20
  MA5                  JUNCTION     0.17     0.20  1776.40     0  17:00        0.20
  MA6                  JUNCTION     0.14     0.16  1780.88     0  17:00        0.16
  MA7                  JUNCTION     0.12     0.14  1786.34     0  17:00        0.14
  MA7A                 JUNCTION     0.15     0.17  1790.29     0  17:00        0.17
  MA8                  JUNCTION     0.11     0.13  1791.33     0  17:00        0.13
  MA9                  JUNCTION     0.08     0.09  1796.29     0  19:00        0.09
  MA9A                 JUNCTION     0.11     0.13  1795.03     0  17:00        0.13
  MH#102               JUNCTION     0.03     0.03  2108.85     0  17:00        0.03
  MH#103               JUNCTION     0.01     0.02  2106.49     0  17:00        0.02
  MH#104               JUNCTION     0.14     0.17  2097.94     0  18:03        0.17
  MH#105               JUNCTION     0.14     0.16  2096.99     0  19:00        0.16
  MH#106               JUNCTION     0.02     0.03  2099.97     0  20:04        0.03
  MH#107               JUNCTION     0.07     0.08  2100.81     0  16:01        0.08
  ML2                  JUNCTION     0.04     0.04  2291.91     0  21:54        0.04
  ML3                  JUNCTION     0.05     0.05  2300.85     0  21:58        0.05
  ML4                  JUNCTION     0.07     0.08  2302.65     0  21:46        0.08
  MLB1                 JUNCTION     0.00     0.00  2223.24     0  00:00        0.00
  MND1                 JUNCTION     0.25     0.30  2171.92     0  17:05        0.30
  MP10                 JUNCTION     0.11     0.13  2151.54     0  17:00        0.13
  MP11                 JUNCTION     0.27     0.31  2152.63     0  17:00        0.31
  MP12                 JUNCTION     0.26     0.30  2153.34     0  17:00        0.30
  MP120                JUNCTION     0.26     0.31  2232.72     0  17:00        0.31
  MP121                JUNCTION     0.42     0.50  2234.92     0  17:00        0.50
  MP122                JUNCTION     0.42     0.50  2236.48     0  17:00        0.50
  MP13                 JUNCTION     0.26     0.30  2153.63     0  17:00        0.30
  MP138                JUNCTION     0.24     0.28  2242.05     0  17:00        0.28
  MP139                JUNCTION     0.24     0.28  2254.13     0  17:00        0.28
  MP139A               JUNCTION     0.39     0.46  2256.20     0  17:00        0.46
  MP14                 JUNCTION     0.26     0.30  2153.92     0  16:02        0.30
  MP140                JUNCTION     0.34     0.40  2256.83     0  17:00        0.40
  MP141                JUNCTION     0.35     0.41  2259.01     0  17:00        0.41
  MP142                JUNCTION     0.35     0.42  2261.07     0  17:00        0.42
  MP143                JUNCTION     0.36     0.43  2262.92     0  17:00        0.43
  MP144                JUNCTION     0.36     0.43  2263.33     0  17:00        0.43
  MP51                 JUNCTION     0.01     0.02  2154.19     0  14:00        0.02
  MP52                 JUNCTION     0.02     0.02  2154.70     0  17:00        0.02
  MP53                 JUNCTION     0.02     0.02  2155.50     0  17:00        0.02
  MP87                 JUNCTION     0.26     0.31  2153.56     0  17:00        0.31
  MPK1                 JUNCTION     0.28     0.32  2243.61     0  17:00        0.32
  MPK10                JUNCTION     0.14     0.16  2253.77     0  17:00        0.16
  MPK14                JUNCTION     0.08     0.09  2254.51     0  16:49        0.09
  MPK22                JUNCTION     0.24     0.28  2254.71     0  16:59        0.28
  MPK5                 JUNCTION     0.20     0.23  2250.06     0  17:02        0.23
  MPK7                 JUNCTION     0.27     0.31  2252.17     0  17:01        0.31
  MPK8                 JUNCTION     0.15     0.18  2252.99     0  17:00        0.18
  MSM1                 JUNCTION     0.32     0.36  2185.06     0  17:00        0.36
  MW10                 JUNCTION     0.05     0.06  2104.92     0  17:00        0.06
  MYE1                 JUNCTION     0.22     0.25  1889.69     0  19:01        0.25
  NDE7                 JUNCTION     0.15     0.17  1783.72     0  17:00        0.17
  OLD1                 JUNCTION     0.13     0.15  1876.03     0  17:00        0.15
  ORV1                 JUNCTION     0.10     0.12  1699.69     0  16:54        0.12
  ORV13A               JUNCTION     0.08     0.09  2241.41     0  20:12        0.09
  ORV14                JUNCTION     0.25     0.29  2239.66     0  17:00        0.29
  ORV15                JUNCTION     0.19     0.22  2240.41     0  17:00        0.22
  ORV16                JUNCTION     0.25     0.29  2241.79     0  17:00        0.29
  ORV17                JUNCTION     0.25     0.29  2242.46     0  17:00        0.29
  ORV18                JUNCTION     0.20     0.24  2243.72     0  17:00        0.24
  ORV19                JUNCTION     0.20     0.23  2244.62     0  16:37        0.23
  ORV2                 JUNCTION     0.22     0.25  1707.05     0  16:50        0.25
  OSR1                 JUNCTION     0.23     0.26  2209.33     0  21:14        0.26
  OSR10                JUNCTION     0.30     0.33  2218.41     0  21:07        0.33
  OSR11                JUNCTION     0.24     0.26  2220.52     0  21:06        0.26
  OSR12                JUNCTION     0.24     0.26  2221.06     0  21:05        0.26
  OSR13                JUNCTION     0.61     0.66  2221.66     0  21:05        0.66
  OSR14                JUNCTION     0.12     0.13  2230.47     0  21:03        0.13
  OSR15                JUNCTION     0.13     0.14  2231.01     0  18:02        0.14
  OSR16                JUNCTION     0.14     0.15  2233.71     0  18:02        0.15
  OSR17A               JUNCTION     0.19     0.21  2239.07     0  18:01        0.21
  OSR18                JUNCTION     0.12     0.13  2242.06     0  18:00        0.13
  OSR19                JUNCTION     0.13     0.14  2250.02     0  18:00        0.14
  OSR2                 JUNCTION     0.29     0.32  2209.68     0  21:13        0.32
  OSR20                JUNCTION     0.13     0.14  2258.25     0  18:00        0.14
  OSR21                JUNCTION     0.11     0.12  2259.14     0  18:00        0.12
  OSR27                JUNCTION     0.00     0.00  2293.05     0  00:00        0.00
  OSR28                JUNCTION     0.00     0.00  2294.87     0  00:00        0.00
  OSR29                JUNCTION     0.00     0.00  2300.87     0  00:00        0.00
  OSR3                 JUNCTION     0.23     0.26  2212.60     0  21:13        0.26
  OSR30                JUNCTION     0.00     0.00  2309.76     0  00:00        0.00
  OSR4                 JUNCTION     0.24     0.27  2213.22     0  21:12        0.27
  OSR5                 JUNCTION     0.64     0.70  2213.85     0  21:11        0.70
  OSR6                 JUNCTION     0.19     0.21  2216.04     0  21:09        0.21
  OSR7                 JUNCTION     0.30     0.33  2216.46     0  21:08        0.33
  OSR8                 JUNCTION     0.30     0.33  2217.39     0  21:08        0.33
  OSR9                 JUNCTION     0.29     0.33  2217.66     0  21:07        0.33
  OTR-MH-C3-AGS4A      JUNCTION     0.28     0.32  2230.79     0  17:00        0.32
  OTR-MH-C3-AGS4B      JUNCTION     0.24     0.26  2230.41     0  17:02        0.26
  OTR-MH-C3-AGS5       JUNCTION     0.29     0.33  2232.09     0  17:00        0.33
  OTR-MH-C3-AGS6       JUNCTION     0.24     0.28  2233.22     0  17:12        0.28
  OTR-MH-C3-AGS7       JUNCTION     0.24     0.27  2234.09     0  17:10        0.27
  OTR-MH-C3-CSP1       JUNCTION     0.38     0.44  2086.94     0  17:00        0.44
  OTR-MH-C3-CSP10      JUNCTION     0.29     0.33  2094.86     0  17:00        0.33
  OTR-MH-C3-CSP10A     JUNCTION     0.27     0.32  2094.60     0  17:00        0.32
  OTR-MH-C3-CSP1A      JUNCTION     0.38     0.45  2087.60     0  17:00        0.45
  OTR-MH-C3-CSP2       JUNCTION     0.36     0.43  2088.97     0  17:00        0.43
  OTR-MH-C3-CSP3       JUNCTION     0.36     0.42  2089.63     0  17:00        0.42
  OTR-MH-C3-CSP4       JUNCTION     0.36     0.42  2090.18     0  17:00        0.42
  OTR-MH-C3-CSP5       JUNCTION     0.35     0.41  2090.88     0  17:00        0.41
  OTR-MH-C3-CSP6       JUNCTION     0.35     0.41  2091.40     0  17:00        0.41
  OTR-MH-C3-CSP7       JUNCTION     0.34     0.40  2091.91     0  17:00        0.40
  OTR-MH-C3-CSP7A      JUNCTION     0.33     0.38  2092.18     0  17:00        0.38
  OTR-MH-C3-CSP8       JUNCTION     0.37     0.43  2092.60     0  17:00        0.43
  OTR-MH-C3-CSP9A      JUNCTION     0.30     0.35  2093.57     0  17:00        0.35
  OTR-MH-C3-CSP9B      JUNCTION     0.30     0.35  2093.28     0  17:00        0.35
  OTR-MH-C3-CYS3       JUNCTION     0.47     0.56  2083.51     0  17:00        0.56
  OTR-MH-C3-EA20       JUNCTION     0.26     0.30  2043.08     0  17:00        0.30
  OTR-MH-C3-HUE36      JUNCTION     0.08     0.09  2128.78     0  18:15        0.09
  OTR-MH-C3-ORV10      JUNCTION     0.24     0.27  2234.20     0  17:09        0.27
  OTR-MH-C3-ORV11      JUNCTION     0.24     0.28  2235.39     0  17:09        0.28
  OTR-MH-C3-ORV12      JUNCTION     0.24     0.27  2236.67     0  17:06        0.27
  OTR-MH-C3-ORV13      JUNCTION     0.24     0.27  2237.86     0  17:03        0.27
  OTR-MH-C3-PAR1       JUNCTION     0.20     0.22  2206.52     0  17:08        0.22
  OTR-MH-C3-PAR2       JUNCTION     0.27     0.30  2210.13     0  17:08        0.30
  OTR-MH-C3-PAR3       JUNCTION     0.26     0.29  2212.81     0  17:07        0.29
  OTR-MH-C3-PAR3A      JUNCTION     0.25     0.28  2216.80     0  17:06        0.28
  OTR-MH-C3-PAR4       JUNCTION     0.26     0.29  2220.38     0  17:05        0.29
  OTR-MH-C3-PAR5       JUNCTION     0.24     0.26  2225.68     0  17:02        0.26
  OTR-MH-C3-PSP31      JUNCTION     0.49     0.56  2191.85     0  17:10        0.56
  OTR-MH-C3-R38-1      JUNCTION     0.27     0.31  2037.57     0  17:00        0.31
  OTR-MH-C3-R38-2      JUNCTION     0.28     0.32  2034.79     0  17:00        0.32
  OTR-MH-C3-R38-3      JUNCTION     0.27     0.31  2034.22     0  17:00        0.31
  OTR-MH-C3-R38-4      JUNCTION     0.28     0.33  2033.38     0  19:22        0.33
  OTR-MH-C3-R43-2      JUNCTION     0.10     0.11  2127.38     0  18:17        0.11
  OTR-MH-C3-R43-3      JUNCTION     0.10     0.11  2124.73     0  18:17        0.11
  OTR-MH-C3-R43-4      JUNCTION     0.10     0.11  2121.97     0  18:20        0.11
  OTR-MH-C3-R43-5      JUNCTION     0.10     0.11  2119.26     0  18:21        0.11
  OTR-MH-C3-R43-6      JUNCTION     0.10     0.11  2117.53     0  18:22        0.11
  OTR-MH-C3-R43-7      JUNCTION     0.25     0.28  2117.33     0  18:23        0.28
  OTR-MH-C3-SEE1       JUNCTION     0.27     0.31  2040.60     0  17:00        0.31
  OTR-MH-C3-SUD1       JUNCTION     0.37     0.43  2088.43     0  17:00        0.43
  OTR-MH-C3-SUD1B      JUNCTION     0.37     0.44  2088.11     0  17:00        0.44
  OTR-MH-C3-UH1        JUNCTION     0.26     0.29  2223.37     0  17:04        0.29
  PAR11                JUNCTION     0.14     0.16  2061.05     0  19:00        0.16
  PAR12                JUNCTION     0.14     0.16  2061.79     0  17:07        0.16
  PAR13                JUNCTION     0.13     0.15  2062.53     0  17:05        0.15
  PAR14                JUNCTION     0.13     0.15  2063.13     0  17:04        0.15
  PAR15                JUNCTION     0.13     0.15  2063.55     0  17:00        0.15
  PAR16                JUNCTION     0.01     0.01  2067.54     0  17:00        0.01
  PAR24                JUNCTION     0.06     0.07  2069.97     0  16:01        0.07
  PAR35                JUNCTION     0.02     0.03  2074.50     0  16:44        0.03
  PBR1                 JUNCTION     0.12     0.13  2238.39     0  18:01        0.13
  PE1                  JUNCTION     0.00     0.00  1941.80     0  21:42        0.00
  PEB1                 JUNCTION     0.03     0.04  2109.34     0  16:43        0.04
  PEB15                JUNCTION     0.02     0.03  2112.09     0  16:39        0.03
  PEB30                JUNCTION     0.08     0.08  2070.08     0  21:11        0.08
  PEB31                JUNCTION     0.07     0.08  2078.72     0  21:10        0.08
  PEB32                JUNCTION     0.03     0.04  2089.76     0  19:09        0.04
  PEB33                JUNCTION     0.03     0.04  2100.64     0  19:07        0.04
  PEB34                JUNCTION     0.04     0.05  2106.05     0  19:06        0.05
  PEB35                JUNCTION     0.03     0.04  2118.02     0  19:04        0.04
  PEB36                JUNCTION     0.04     0.04  2125.90     0  19:02        0.04
  PEB37                JUNCTION     0.04     0.05  2130.62     0  19:01        0.05
  PEB38                JUNCTION     0.04     0.04  2133.22     0  17:00        0.04
  PEB39                JUNCTION     0.03     0.03  2137.54     0  16:32        0.03
  PEBBLEFM1            JUNCTION    19.21    68.16  2178.71     0  16:12       67.31
  PEBBLEFM2            JUNCTION    34.23    65.09  2175.64     0  07:11       65.09
  PIC1                 JUNCTION     0.17     0.19  2060.01     0  16:46        0.19
  PIC2                 JUNCTION     0.17     0.19  2061.45     0  16:05        0.19
  PIP1                 JUNCTION     0.02     0.02  1951.35     0  16:43        0.02
  PIP5                 JUNCTION     0.02     0.02  1943.10     0  17:04        0.02
  PMR1                 JUNCTION     0.16     0.19  2185.43     0  17:00        0.19
  PMR10                JUNCTION     0.11     0.13  2217.68     0  17:00        0.13
  PMR10A               JUNCTION     0.12     0.14  2221.38     0  17:00        0.14
  PMR11                JUNCTION     0.11     0.13  2221.75     0  17:00        0.13
  PMR12                JUNCTION     0.15     0.17  2223.12     0  17:00        0.17
  PMR13                JUNCTION     0.11     0.13  2227.45     0  16:42        0.13
  PMR2                 JUNCTION     0.18     0.21  2190.15     0  17:00        0.21
  PMR2A                JUNCTION     0.18     0.21  2192.77     0  17:00        0.21
  PMR3                 JUNCTION     0.17     0.19  2194.38     0  17:00        0.19
  PMR4                 JUNCTION     0.17     0.19  2194.72     0  17:00        0.19
  PMR5                 JUNCTION     0.17     0.19  2198.47     0  17:00        0.19
  PMR6                 JUNCTION     0.17     0.19  2201.44     0  17:00        0.19
  PMR7                 JUNCTION     0.13     0.15  2205.90     0  17:00        0.15
  PMR8                 JUNCTION     0.13     0.15  2208.50     0  17:00        0.15
  PMR9                 JUNCTION     0.13     0.15  2213.20     0  17:00        0.15
  PS11                 JUNCTION     0.02     0.03  2004.93     0  17:28        0.03
  PSD7                 JUNCTION     0.02     0.02  1922.92     0  17:23        0.02
  PSH1                 JUNCTION     0.08     0.09  1894.85     0  17:01        0.09
  PSH4                 JUNCTION     0.08     0.09  1897.68     0  17:00        0.09
  PSI10                JUNCTION     0.46     0.53  1901.16     0  21:36        0.53
  PSI11                JUNCTION     0.45     0.51  1901.40     0  21:35        0.51
  PSI12                JUNCTION     0.37     0.45  1925.51     0  17:31        0.45
  PSI13                JUNCTION     0.72     0.87  1927.33     0  17:30        0.87
  PSI14                JUNCTION     0.73     0.87  1928.37     0  17:28        0.87
  PSI15                JUNCTION     0.73     0.87  1929.44     0  17:27        0.87
  PSI16                JUNCTION     0.72     0.87  1930.19     0  17:26        0.87
  PSI17                JUNCTION     0.73     0.87  1931.06     0  17:25        0.87
  PSI18                JUNCTION     0.73     0.87  1931.18     0  17:24        0.87
  PSI19                JUNCTION     0.73     0.87  1931.89     0  17:23        0.87
  PSI20                JUNCTION     0.49     0.58  1939.31     0  17:23        0.58
  PSI21                JUNCTION     0.43     0.52  1940.94     0  17:22        0.52
  PSL1                 JUNCTION     0.08     0.09  2096.02     0  19:00        0.09
  PSL10                JUNCTION     0.00     0.00  2124.43     0  00:00        0.00
  PSL11                JUNCTION     0.00     0.00  2135.13     0  00:00        0.00
  PSL12                JUNCTION     0.00     0.00  2141.83     0  00:00        0.00
  PSL13                JUNCTION     0.00     0.00  2144.95     0  00:00        0.00
  PSL14                JUNCTION     0.00     0.00  2148.30     0  00:00        0.00
  PSL15                JUNCTION     0.00     0.00  2150.67     0  00:00        0.00
  PSL16                JUNCTION     0.00     0.00  2152.55     0  00:00        0.00
  PSL17                JUNCTION     0.00     0.00  2155.70     0  00:00        0.00
  PSL18                JUNCTION     0.61     0.95  2145.87     0  18:53        0.95
  PSL19                JUNCTION     0.75     1.30  2147.62     0  18:53        1.30
  PSL2                 JUNCTION     0.05     0.06  2095.45     0  17:00        0.06
  PSL20                JUNCTION     0.20     0.61  2155.56     0  18:53        0.61
  PSL3                 JUNCTION     0.54     0.54  2096.59     0  17:00        0.54
  PSL4                 JUNCTION     0.20     0.22  2107.04     0  17:01        0.22
  PSL6                 JUNCTION     0.21     0.23  2109.35     0  17:00        0.23
  PSL7                 JUNCTION     0.22     0.23  2110.90     0  17:00        0.23
  PSL9                 JUNCTION     0.00     0.01  2113.36     0  21:00        0.01
  PSP1                 JUNCTION     0.24     0.28  2106.28     0  17:04        0.28
  PSP10                JUNCTION     0.48     0.56  2166.06     0  17:04        0.56
  PSP11                JUNCTION     0.48     0.55  2166.75     0  17:03        0.55
  PSP12                JUNCTION     0.46     0.53  2167.53     0  17:02        0.53
  PSP12A               JUNCTION     0.46     0.53  2167.97     0  17:02        0.53
  PSP13                JUNCTION     0.45     0.52  2168.32     0  17:01        0.52
  PSP13A               JUNCTION     0.34     0.39  2169.49     0  17:00        0.39
  PSP13C               JUNCTION     0.36     0.41  2169.41     0  17:00        0.41
  PSP14                JUNCTION     0.35     0.40  2170.40     0  17:00        0.40
  PSP15                JUNCTION     0.33     0.38  2173.47     0  17:00        0.38
  PSP16                JUNCTION     0.63     0.72  2175.22     0  17:03        0.72
  PSP16A               JUNCTION     0.50     0.58  2175.74     0  17:02        0.58
  PSP17                JUNCTION     0.45     0.52  2176.52     0  17:02        0.52
  PSP17A               JUNCTION     0.48     0.55  2177.78     0  17:01        0.55
  PSP18                JUNCTION     0.48     0.55  2178.05     0  17:01        0.55
  PSP19                JUNCTION     0.48     0.55  2179.55     0  17:00        0.55
  PSP2                 JUNCTION     0.23     0.27  2121.27     0  17:03        0.27
  PSP20                JUNCTION     0.47     0.54  2181.04     0  17:00        0.54
  PSP21                JUNCTION     0.46     0.52  2182.52     0  17:00        0.52
  PSP22                JUNCTION     0.51     0.58  2183.58     0  17:00        0.58
  PSP23                JUNCTION     0.39     0.44  2185.54     0  17:00        0.44
  PSP24                JUNCTION     0.39     0.45  2187.45     0  17:00        0.45
  PSP25                JUNCTION     0.41     0.46  2189.25     0  17:32        0.46
  PSP26                JUNCTION     0.50     0.56  2189.91     0  17:30        0.56
  PSP27                JUNCTION     0.53     0.60  2190.38     0  17:19        0.60
  PSP28                JUNCTION     0.50     0.56  2190.89     0  17:27        0.56
  PSP29                JUNCTION     0.49     0.56  2191.21     0  17:15        0.56
  PSP3                 JUNCTION     0.22     0.26  2122.61     0  17:03        0.26
  PSP30                JUNCTION     0.49     0.56  2191.53     0  17:13        0.56
  PSP30A               JUNCTION     0.50     0.56  2191.58     0  17:12        0.56
  PSP32                JUNCTION     0.31     0.34  2192.13     0  19:00        0.34
  PSP33                JUNCTION     0.30     0.34  2192.44     0  19:00        0.34
  PSP34                JUNCTION     0.31     0.35  2192.75     0  19:00        0.35
  PSP35                JUNCTION     0.31     0.34  2193.05     0  17:03        0.34
  PSP36                JUNCTION     0.24     0.27  2193.37     0  17:00        0.27
  PSP37                JUNCTION     0.10     0.11  2193.79     0  17:00        0.11
  PSP4                 JUNCTION     0.22     0.26  2142.26     0  17:02        0.26
  PSP46                JUNCTION     0.32     0.36  2205.30     0  17:17        0.36
  PSP47                JUNCTION     0.11     0.13  2212.16     0  21:00        0.13
  PSP4A                JUNCTION     0.26     0.31  2144.74     0  17:02        0.31
  PSP5                 JUNCTION     0.26     0.30  2152.30     0  17:01        0.30
  PSP6                 JUNCTION     0.26     0.30  2157.85     0  17:01        0.30
  PSP7                 JUNCTION     0.26     0.30  2163.30     0  17:00        0.30
  PSP8                 JUNCTION     0.48     0.56  2164.56     0  17:11        0.56
  PSP9                 JUNCTION     0.47     0.54  2165.34     0  17:10        0.54
  PSR25                JUNCTION     0.03     0.03  1866.24     0  00:01        0.03
  PSR26                JUNCTION     0.03     0.04  1864.24     0  00:04        0.04
  PSR27                JUNCTION     0.19     0.21  1862.70     0  19:07        0.21
  PSR28                JUNCTION     0.06     0.07  1927.40     0  16:15        0.07
  PV109                JUNCTION     0.09     0.11  1983.74     0  19:08        0.11
  PV110                JUNCTION     0.14     0.16  1984.42     0  19:06        0.16
  PV111                JUNCTION     0.11     0.13  1985.29     0  18:28        0.13
  PV112                JUNCTION     0.11     0.13  1986.19     0  18:27        0.13
  PV113                JUNCTION     0.11     0.13  1987.09     0  18:18        0.13
  PV114                JUNCTION     0.11     0.13  1987.99     0  19:02        0.13
  PV115                JUNCTION     0.12     0.13  1988.84     0  19:00        0.13
  PV116                JUNCTION     0.09     0.11  1989.45     0  16:13        0.11
  PV117                JUNCTION     0.10     0.11  1990.06     0  16:04        0.11
  PWA1Z                JUNCTION     0.28     0.33  1865.55     0  19:08        0.33
  PWI-MH-C1-01         JUNCTION     1.60     1.93  2050.79     0  00:47        1.93
  PWI-MH-C1-02         JUNCTION     1.59     2.24  2046.91     0  00:48        2.24
  PWI-MH-C1-03         JUNCTION     1.58     2.20  2046.44     0  00:48        2.17
  PWI-MH-C1-04         JUNCTION     1.60     2.16  2041.22     0  00:49        2.11
  PWI-MH-C1-05         JUNCTION     1.82     2.47  2036.89     0  00:50        2.29
  PWI-MH-C1-06         JUNCTION     1.99     2.79  2036.79     0  00:51        2.61
  PWI-MH-C1-07         JUNCTION     1.95     2.52  2034.36     0  00:52        2.43
  PWI-MH-C1-08         JUNCTION     1.98     2.44  2032.12     0  16:40        2.43
  PWI-MH-C1-08A        JUNCTION     0.32     0.45  2041.45     0  19:16        0.45
  PWI-MH-C1-09         JUNCTION     1.95     2.53  2031.89     0  00:54        2.50
  PWI-MH-C1-10         JUNCTION     1.95     2.41  2028.64     0  16:41        2.41
  PWI-MH-C1-11         JUNCTION     1.95     2.41  2026.22     0  16:42        2.41
  PWI-MH-C1-12         JUNCTION     1.94     2.40  2023.44     0  16:43        2.40
  PWI-MH-C1-13         JUNCTION     1.92     2.47  2021.68     0  00:58        2.44
  PWI-MH-C1-14         JUNCTION     1.87     2.39  2020.81     0  14:48        2.38
  PWI-MH-C1-15         JUNCTION     1.86     2.53  2020.85     0  00:59        2.51
  PWI-MH-C1-16         JUNCTION     1.86     2.54  2017.50     0  01:00        2.51
  PWI-MH-C1-17         JUNCTION     1.86     2.53  2016.66     0  01:01        2.52
  PWI-MH-C1-18         JUNCTION     1.86     2.68  2016.68     0  01:01        2.66
  PWI-MH-C1-19         JUNCTION     1.65     2.36  2013.69     0  01:02        2.31
  PWI-MH-C1-20         JUNCTION     1.73     2.77  2010.21     0  01:03        2.48
  PWI-MH-C1-21         JUNCTION     1.72     2.74  2009.97     0  01:04        2.72
  PWI-MH-C1-22         JUNCTION     1.76     3.05  2007.50     0  01:04        2.85
  PWI-MH-C1-23         JUNCTION     1.75     3.09  2007.22     0  01:05        2.81
  PWI-MH-C1-24         JUNCTION     1.75     3.14  2003.40     0  01:05        3.11
  PWI-MH-C1-25         JUNCTION     1.75     3.13  2002.96     0  01:06        2.82
  PWI-MH-C1-26         JUNCTION     1.74     3.17  1998.46     0  01:07        2.88
  PWI-MH-C1-27         JUNCTION     1.75     3.13  1998.32     0  01:08        3.11
  PWI-MH-C1-28         JUNCTION     1.74     3.24  1993.53     0  01:08        3.21
  PWI-MH-C1-29         JUNCTION     1.75     3.03  1993.10     0  01:09        2.73
  PWI-MH-C1-30         JUNCTION     1.75     3.40  1991.78     0  01:09        3.24
  PWI-MH-C1-31         JUNCTION     1.74     3.37  1990.95     0  01:10        3.22
  PWI-MH-C1-32         JUNCTION     1.74     3.19  1988.60     0  01:10        3.17
  PWI-MH-C1-33         JUNCTION     1.74     2.82  1982.72     0  01:11        2.79
  PWI-MH-C1-34         JUNCTION     1.74     3.38  1980.61     0  01:12        3.09
  PWI-MH-C1-35         JUNCTION     1.74     3.12  1980.17     0  01:12        3.06
  PWI-MH-C1-36         JUNCTION     1.74     3.39  1979.17     0  01:13        2.99
  PWI-MH-C1-37         JUNCTION     1.74     3.37  1976.12     0  01:13        3.34
  PWI-MH-C1-38         JUNCTION     1.74     3.45  1974.54     0  01:14        3.08
  PWI-MH-C1-39         JUNCTION     1.70     3.62  1972.95     0  01:14        3.31
  PWI-MH-C1-40         JUNCTION     1.72     3.50  1969.55     0  01:15        3.06
  PWI-MH-C1-41         JUNCTION     1.73     3.62  1968.17     0  01:15        3.21
  PWI-MH-C1-42         JUNCTION     1.71     3.52  1965.73     0  01:16        3.13
  PWI-MH-C1-43         JUNCTION     1.73     3.19  1961.86     0  01:17        3.19
  PWI-MH-C1-44         JUNCTION     1.38     3.48  1958.27     0  01:17        2.97
  PWI-MH-C1-45         JUNCTION     1.35     2.64  1957.14     0  01:18        2.34
  PWI-MH-C1-46         JUNCTION     1.33     2.20  1940.13     0  15:04        2.15
  PWI-MH-C1-47         JUNCTION     1.29     2.02  1923.01     0  15:05        1.89
  PWI-MH-C1-48         JUNCTION     1.81     2.79  1911.79     0  15:06        2.75
  PWI-MH-C1-49         JUNCTION     1.94     2.76  1904.51     0  15:07        2.70
  PWI-MH-C1-50         JUNCTION     1.93     2.83  1904.34     0  15:08        2.83
  PWI-MH-C2-01         JUNCTION     1.96     2.84  1901.63     0  15:09        2.84
  PWI-MH-C2-02         JUNCTION     1.58     2.51  1899.70     0  15:09        2.39
  PWI-MH-C2-03         JUNCTION     1.51     2.31  1899.13     0  15:10        2.28
  PWI-MH-C2-04         JUNCTION     1.52     2.30  1889.15     0  15:10        2.27
  PWI-MH-C2-05         JUNCTION     1.51     2.35  1884.63     0  15:11        2.29
  PWI-MH-C2-06         JUNCTION     1.59     2.86  1879.89     0  01:27        2.84
  PWI-MH-C2-07         JUNCTION     1.52     2.51  1879.34     0  15:12        2.45
  PWI-MH-C2-08         JUNCTION     1.51     2.34  1869.36     0  15:12        2.33
  PWI-MH-C2-09         JUNCTION     1.55     2.37  1859.58     0  15:13        2.32
  PWI-MH-C2-10         JUNCTION     1.47     2.77  1854.80     0  15:14        2.74
  PWI-MH-C2-11         JUNCTION     1.44     2.40  1854.15     0  15:14        2.37
  PWI-MH-C2-12         JUNCTION     1.47     2.41  1842.29     0  15:15        2.28
[...]
  TER29TER28              1.00   0.00  0.00  0.00  0.00  0.00  0.00  1.00  0.00  0.00
  TER30TER21              1.00   0.00  0.00  0.00  0.00  1.00  0.00  0.00  0.80  0.00
  TER30TER29              1.00   0.00  0.00  0.00  0.00  0.00  0.00  1.00  0.00  0.00
  TER31TER30              1.00   0.00  0.00  0.00  0.00  0.00  0.00  1.00  0.00  0.00
  TER32TER31              1.00   0.00  0.00  0.00  0.00  0.00  0.00  1.00  0.00  0.00
  TER33TER32              1.00   0.00  0.00  0.00  0.00  0.00  0.00  1.00  0.00  0.00
  TER34TER33              1.00   0.00  0.00  0.00  0.00  0.00  0.00  1.00  0.00  0.00
  TER35TER34              1.00   0.00  0.00  0.00  0.00  0.00  0.00  1.00  0.00  0.00
  TER36TER35              1.00   0.00  0.00  0.00  0.00  0.00  0.00  1.00  0.00  0.00
  TER37TER36              1.00   0.00  0.00  0.00  0.00  0.00  0.00  1.00  0.00  0.00
  TER38TER37              1.71   0.00  0.00  0.00  0.00  0.00  0.00  1.00  0.00  0.00
  TF10TS9A                1.00   0.00  0.00  0.00  0.00  1.00  0.00  0.00  0.00  0.00
  TF11TF10                1.00   0.00  0.00  0.00  0.00  0.00  0.00  1.00  0.00  0.00
  TF12TF11                1.00   0.00  0.00  0.00  0.00  1.00  0.00  0.00  0.00  0.00
  TF13TF12                1.00   0.00  0.00  0.00  0.00  0.00  0.00  1.00  0.00  0.00
  TF14TF13                1.00   0.00  0.00  0.00  0.00  1.00  0.00  0.00  0.00  0.00
  TF15TF14                1.00   0.00  0.00  0.00  0.00  0.00  0.00  1.00  0.00  0.00
  TF16TF15                1.00   0.00  0.00  0.00  0.00  0.00  0.00  1.00  0.00  0.00
  TF17HZ1                 1.15   0.00  0.00  0.00  0.00  1.00  0.00  0.00  0.00  0.00
  TF18TF17                1.00   0.00  0.00  0.00  0.00  1.00  0.00  0.00  1.00  0.00
  TF1TS2                 94.27   0.00  0.00  0.00  0.00  0.00  0.00  1.00  0.00  0.00
  TF2TF1                  1.00   0.00  0.00  0.00  0.00  0.00  0.00  1.00  0.00  0.00
  TF3TF2                  1.00   0.00  0.00  0.00  0.00  0.00  0.00  1.00  0.00  0.00
  TF4TF3                  1.00   0.00  0.00  0.00  0.00  0.00  0.00  1.00  0.00  0.00
  TF5TF4                  1.00   0.00  0.00  0.00  0.00  0.00  0.00  1.00  0.00  0.00
  TF6TF5                  1.00   0.00  0.00  0.00  0.00  1.00  0.00  0.00  0.00  0.00
  TF7TF6                  1.00   0.00  0.00  0.00  0.00  1.00  0.00  0.00  0.00  0.00
  TF8TF7                  1.00   0.00  0.00  0.00  0.00  1.00  0.00  0.00  0.98  0.00
  TF9TF8                  1.00   0.00  0.00  0.00  0.00  0.00  0.00  1.00  0.00  0.00
  THO10THO9               1.00   0.01  0.00  0.00  0.00  0.99  0.00  0.00  0.00  0.00
  THO11THO10              1.00   0.01  0.00  0.00  0.01  0.99  0.00  0.00  0.00  0.00
  THO12THO11              1.00   0.00  0.00  0.00  0.00  0.99  0.00  0.00  0.97  0.00
  THO13THO12              1.00   0.00  0.00  0.00  0.00  1.00  0.00  0.00  0.97  0.00
  THO14ATHO14             1.00   0.00  0.00  0.00  0.99  0.01  0.00  0.00  0.99  0.00
  THO14THO13              1.00   0.00  0.00  0.00  0.99  0.01  0.00  0.00  0.00  0.00
  THO15THO14              1.57   0.01  0.00  0.00  0.00  0.00  0.00  0.99  0.00  0.00
  THO16THO15              1.00   0.00  0.00  0.00  0.00  0.99  0.00  0.00  0.00  0.00
  THO17THO16              1.00   0.00  0.00  0.00  0.00  1.00  0.00  0.00  0.00  0.00
  THO18THO17              1.00   0.00  0.00  0.00  0.00  1.00  0.00  0.00  0.98  0.00
  THO19THO18              1.16   0.00  0.00  0.00  0.00  0.00  0.00  1.00  0.00  0.00
  THO1SR90H               2.28   0.00  0.00  0.00  0.00  0.00  0.00  1.00  0.00  0.00
  THO20THO19              1.00   0.00  0.00  0.00  0.00  0.00  0.00  1.00  0.00  0.00
  THO21THO20              1.00   0.00  0.00  0.00  0.00  1.00  0.00  0.00  0.05  0.00
  THO2THO1                1.00   0.00  0.00  0.00  0.00  0.00  0.00  1.00  0.00  0.00
  THO3THO2                1.00   0.00  0.00  0.00  0.00  0.00  0.00  1.00  0.00  0.00
  THO4THO3                1.00   0.00  0.00  0.00  0.00  0.00  0.00  1.00  0.00  0.00
  THO5THO4                1.00   0.00  0.00  0.00  0.00  0.00  0.00  1.00  0.00  0.00
  THO6THO5                1.00   0.00  0.00  0.00  0.00  0.00  0.00  1.00  0.00  0.00
  THO7THO6                1.00   0.00  0.00  0.00  0.00  1.00  0.00  0.00  0.99  0.00
  THO8RTC8                1.00   0.00  0.02  0.00  0.98  0.00  0.00  0.00  0.98  0.00
  THO9THO8                1.00   0.01  0.00  0.00  0.96  0.02  0.00  0.00  0.97  0.00
  TR100PV114              1.00   0.00  0.00  0.00  1.00  0.00  0.00  0.00  0.94  0.00
  TR102RI14               1.00   0.00  0.00  0.00  0.01  0.99  0.00  0.00  0.90  0.00
  TS1PLT14                3.73   0.00  0.00  0.00  0.99  0.00  0.00  0.00  0.00  0.00
  TS2TS1                  2.66   0.00  0.00  0.00  1.00  0.00  0.00  0.00  0.00  0.00
  TS3TS2                  1.00   0.00  0.00  0.00  0.96  0.03  0.00  0.00  1.00  0.00
  TS4TS3                  1.00   0.00  0.00  0.00  0.00  0.99  0.00  0.00  0.00  0.00
  TS5TS4                  1.00   0.00  0.00  0.00  0.00  0.00  0.00  1.00  0.00  0.00
  TS6TS5                  1.00   0.00  0.00  0.00  0.00  1.00  0.00  0.00  0.99  0.00
  TS7TS6                  1.00   0.00  0.00  0.00  0.00  1.00  0.00  0.00  0.99  0.00
  TS8TS7                  1.00   0.00  0.00  0.00  0.00  1.00  0.00  0.00  0.00  0.00
  TS9ATF9                 4.18   0.00  0.00  0.00  0.00  0.00  0.00  1.00  0.00  0.00
  TS9BTF9                 2.40   0.00  0.00  0.00  0.00  1.00  0.00  0.00  0.00  0.00
  TS9CZTS8A              12.89   0.01  0.00  0.00  0.05  0.94  0.00  0.00  0.06  0.00
  TS9ZTS8A                8.26   0.01  0.08  0.00  0.92  0.00  0.00  0.00  0.00  0.00
  UO46BDS195              4.40   0.00  0.00  0.00  0.00  0.99  0.00  0.00  1.00  0.00
  UO47UO46                1.00   0.00  0.00  0.00  0.00  0.99  0.00  0.00  0.00  0.00
  UO48UO47                1.00   0.00  0.00  0.00  0.00  0.00  0.00  1.00  0.00  0.00
  UO49UO48                1.00   0.00  0.00  0.00  0.00  0.00  0.00  1.00  0.00  0.00
  UO50UO49                1.00   0.00  0.00  0.00  0.00  0.00  0.00  1.00  0.00  0.00
  UO51UO50                1.00   0.00  0.00  0.00  0.00  0.00  0.00  1.00  0.00  0.00
  UO52UO51                1.00   0.00  0.00  0.00  0.00  0.00  0.00  1.00  0.00  0.00
  UO54UO52                4.77   0.00  0.00  0.00  0.00  0.00  0.00  1.00  0.00  0.00
  UO55UO54                1.00   0.00  0.00  0.00  0.00  0.00  0.00  1.00  0.00  0.00
  UO56UO55                1.00   0.00  0.00  0.00  0.00  0.00  0.00  1.00  0.00  0.00
  UO57UO56                1.00   0.00  0.00  0.00  0.00  0.00  0.00  1.00  0.00  0.00
  UTL1DH156               1.27   0.00  0.00  0.00  0.00  1.00  0.00  0.00  0.99  0.00
  UTL2UTL5                5.99   0.00  0.00  0.00  0.00  1.00  0.00  0.00  1.00  0.00
  UTL3UTL1                3.54   0.00  0.00  0.00  0.00  1.00  0.00  0.00  0.99  0.00
  UTL4UTL3                1.00   0.00  0.00  0.00  0.00  0.00  0.00  1.00  0.00  0.00
  UTL5UTL4                1.00   0.00  0.00  0.00  0.00  1.00  0.00  0.00  0.99  0.00
  VB1ROV1                 1.00   0.00  0.00  0.00  1.00  0.00  0.00  0.00  0.80  0.00
  VC1SR144                1.00   0.00  0.00  0.00  0.00  1.00  0.00  0.00  1.00  0.00
  VE6TF18                 1.00   0.00  0.00  0.00  0.00  0.00  0.00  1.00  0.00  0.00
  VER1SIL23               1.00   0.00  0.00  0.00  0.00  0.00  0.00  1.00  0.00  0.00
  VER2VER1                1.00   0.00  0.00  0.00  0.00  0.00  0.00  1.00  0.00  0.00
  VER3VER2                1.00   0.00  0.00  0.00  1.00  0.00  0.00  0.00  0.97  0.00
  VG10PWS1                4.65   0.00  0.00  0.00  0.02  0.98  0.00  0.00  0.00  0.00
  VG11VG10                1.00   0.00  0.00  0.00  0.00  1.00  0.00  0.00  0.95  0.00
  VG12VG11                1.00   0.00  0.00  0.00  0.00  1.00  0.00  0.00  0.85  0.00
  VG1FRE6                 1.00   0.00  0.00  0.00  0.00  0.00  0.00  1.00  0.00  0.00
  VG2VG1                  1.00   0.00  0.00  0.00  0.00  0.00  0.00  1.00  0.00  0.00
  VG3SN1                  1.00   0.00  0.00  0.00  0.02  0.98  0.00  0.00  0.99  0.00
  VG4VG3                  1.00   0.00  0.00  0.00  0.00  0.00  0.00  1.00  0.00  0.00
  VG5AVG5                 1.67   0.01  0.00  0.00  0.00  0.99  0.00  0.00  0.98  0.00
  VG5VG4                  1.00   0.01  0.00  0.00  0.00  0.00  0.00  0.99  0.00  0.00
  VG6VG5A                 1.00   0.00  0.00  0.00  0.00  0.00  0.00  1.00  0.00  0.00
  VG7AVG7                14.49   0.00  0.00  0.00  0.00  0.99  0.00  0.00  0.00  0.00
  VG7BWSS1                2.01   0.00  0.00  0.00  0.00  0.99  0.00  0.00  0.16  0.00
  VG7CVG7B                2.59   0.00  0.00  0.00  0.00  0.00  0.00  1.00  0.00  0.00
  VG7VG6                  1.00   0.00  0.00  0.00  0.69  0.29  0.00  0.02  0.98  0.00
  VG9VG7C                 1.01   0.00  0.00  0.00  0.00  0.00  0.00  1.00  0.00  0.00
  VGE61SR21               1.00   0.00  0.00  0.00  1.00  0.00  0.00  0.00  0.00  0.00
  VPL1SR10                1.00   0.00  0.00  0.00  0.00  0.99  0.00  0.00  0.00  0.00
  VVE1LME1                1.02   0.01  0.00  0.00  0.00  0.00  0.00  0.99  0.00  0.00
  VVE2VVE1                1.00   0.00  0.00  0.00  0.00  0.00  0.00  1.00  0.00  0.00
  VVE3VVE2                1.00   0.00  0.00  0.00  1.00  0.00  0.00  0.00  0.97  0.00
  WE10DOM4                1.00   0.00  0.00  0.00  0.00  1.00  0.00  0.00  0.00  0.00
  WFL10AWFL10             1.00   0.00  0.00  0.00  0.00  1.00  0.00  0.00  1.00  0.00
  WFL10WFL9               1.00   0.00  0.00  0.00  0.00  1.00  0.00  0.00  1.00  0.00
  WFL11WFL10A             1.00   0.00  0.00  0.00  0.00  1.00  0.00  0.00  1.00  0.00
  WFL2FSA15               1.00   0.00  0.00  0.00  0.00  0.00  0.00  1.00  0.00  0.00
  WFL3WFL2                1.00   0.00  0.00  0.00  0.00  0.00  0.00  1.00  0.00  0.00
  WFL4WFL3                1.00   0.00  0.00  0.00  0.00  0.00  0.00  1.00  0.00  0.00
  WFL5WFL4                1.00   0.00  0.00  0.00  0.00  0.00  0.00  1.00  0.00  0.00
  WFL6WFL5                1.00   0.00  0.00  0.00  0.00  0.00  0.00  1.00  0.00  0.00
  WFL7WFL6                1.00   0.00  0.00  0.00  0.00  0.00  0.00  1.00  0.00  0.00
  WFL8WFL7                1.00   0.00  0.00  0.00  0.00  0.00  0.00  1.00  0.00  0.00
  WFL9WFL8                1.00   0.00  0.00  0.00  0.00  0.00  0.00  1.00  0.00  0.00
  WMS15CSP10              1.00   0.00  0.00  0.00  0.00  0.00  0.00  1.00  0.00  0.00
  WMV1WMS15               1.00   0.00  0.00  0.00  0.00  0.00  0.00  1.00  0.00  0.00
  WMV2WMV1                1.00   0.00  0.00  0.00  0.00  0.00  0.00  1.00  0.00  0.00
  WMV3WMV2                1.00   0.00  0.00  0.00  0.00  0.00  0.00  1.00  0.00  0.00
  WMV4WMV3                1.00   0.00  0.00  0.00  0.00  0.00  0.00  1.00  0.00  0.00
  WR1EA21                 1.00   0.00  0.00  0.00  0.00  0.00  0.00  1.00  0.00  0.00
  WR2HOR3P                4.25   0.00  0.00  0.00  0.00  0.00  0.00  1.00  0.00  0.00
  WR2WR1                  1.00   0.00  0.00  0.00  1.00  0.00  0.00  0.00  1.00  0.00
  WR43WR9                 1.00   0.00  0.00  0.00  0.00  0.99  0.00  0.00  0.99  0.00
  WR45WR43                1.00   0.00  0.00  0.00  0.00  1.00  0.00  0.00  0.00  0.00
  WR46WR45                1.00   0.00  0.00  0.00  0.00  1.00  0.00  0.00  0.99  0.00
  WR47AWR47               1.00   0.00  0.00  0.00  0.00  1.00  0.00  0.00  0.99  0.00
  WR47WR46                1.00   0.00  0.00  0.00  0.00  1.00  0.00  0.00  0.00  0.00
  WR5WR2                  1.00   0.01  0.00  0.00  0.00  0.00  0.00  0.99  0.00  0.00
  WR6WR5                  1.00   0.01  0.00  0.00  0.00  0.99  0.00  0.00  0.99  0.00
  WR7WR6                  1.00   0.01  0.00  0.00  0.00  0.99  0.00  0.00  0.00  0.00
  WR9WR7                  1.00   0.01  0.00  0.00  0.00  0.99  0.00  0.00  0.99  0.00
  WRI1SIL11               1.00   0.00  0.00  0.00  1.00  0.00  0.00  0.00  0.50  0.00
  WSP10WSP11              1.00   0.00  0.00  0.00  0.02  0.98  0.00  0.00  0.02  0.00
  WSP11WSP12              1.00   0.00  0.00  0.00  0.00  1.00  0.00  0.00  0.99  0.00
  WSP12WSP13              1.00   0.00  0.00  0.00  0.00  1.00  0.00  0.00  0.38  0.00
  WSP13WSP14              1.00   0.00  0.00  0.00  0.00  0.99  0.00  0.00  0.74  0.00
  WSP14AWSP15             1.00   0.00  0.00  0.00  0.00  0.99  0.00  0.00  0.15  0.00
  WSP14WSP14A             1.00   0.00  0.00  0.00  0.00  0.99  0.00  0.00  0.55  0.00
  WSP15WSP16              1.00   0.01  0.00  0.00  0.00  0.99  0.00  0.00  0.00  0.00
  WSP16WSP17              1.00   0.01  0.00  0.00  0.00  0.99  0.00  0.00  0.00  0.00
  WSP17WSP18              1.00   0.00  0.01  0.00  0.01  0.98  0.00  0.00  0.97  0.00
  WSP18AWSP19A            1.00   0.00  0.00  0.00  0.00  1.00  0.00  0.00  0.97  0.00
  WSP18WSP18A             1.00   0.00  0.00  0.00  0.00  1.00  0.00  0.00  0.00  0.00
  WSP19AWSP19             2.71   0.00  0.00  0.00  0.00  1.00  0.00  0.00  0.00  0.00
  WSP19WSP20              2.53   0.00  0.00  0.00  0.00  1.00  0.00  0.00  0.04  0.00
  WSP1AWSP1               1.00   0.00  0.00  0.00  0.00  0.99  0.00  0.00  0.00  0.00
  WSP1WSP2               15.46   0.01  0.00  0.00  0.00  0.99  0.00  0.00  0.61  0.00
  WSP20AWSP21             1.00   0.00  0.00  0.00  0.00  0.99  0.00  0.00  0.00  0.00
  WSP20WSP20A             1.00   0.00  0.00  0.00  0.00  0.99  0.00  0.00  0.94  0.00
  WSP21CEE4               1.00   0.00  0.00  0.00  0.00  0.99  0.00  0.00  0.00  0.00
  WSP22PSI21              1.00   0.00  0.00  0.00  0.00  0.00  0.00  1.00  0.00  0.00
  WSP24WSP25              1.00   0.00  0.00  0.00  0.00  1.00  0.00  0.00  0.99  0.00
  WSP25WSP26              1.00   0.00  0.00  0.00  0.01  0.99  0.00  0.00  0.00  0.00
  WSP26WSP27              1.00   0.00  0.00  0.00  0.04  0.95  0.00  0.00  0.97  0.00
  WSP27WSP28              1.00   0.00  0.00  0.00  0.05  0.95  0.00  0.00  0.58  0.00
  WSP28WSP29              1.00   0.00  0.00  0.00  0.05  0.95  0.00  0.00  0.00  0.00
  WSP29WSP30              1.00   0.01  0.00  0.00  0.04  0.95  0.00  0.00  0.01  0.00
  WSP2EA16E               3.87   0.00  0.00  0.00  0.01  0.98  0.00  0.00  0.01  0.00
  WSP30WSP31             18.56   0.00  0.00  0.00  0.06  0.94  0.00  0.00  0.03  0.00
  WSP31WSP32              1.00   0.00  0.00  0.00  0.00  0.99  0.00  0.00  0.00  0.00
  WSP32SI57               2.37   0.00  0.00  0.00  0.00  0.99  0.00  0.00  0.00  0.00
  WSP3WSP4                1.00   0.00  0.00  0.00  0.00  0.99  0.00  0.00  0.98  0.00
  WSP4WSP5                1.00   0.00  0.00  0.00  0.01  0.99  0.00  0.00  0.67  0.00
  WSP5RI1                 6.86   0.01  0.00  0.00  0.01  0.74  0.00  0.24  0.01  0.00
  WSP6WSP7                7.03   0.00  0.00  0.00  0.00  1.00  0.00  0.00  0.01  0.00
  WSP7AWSP8               1.00   0.00  0.00  0.00  0.01  0.99  0.00  0.00  0.00  0.00
  WSP8AWSP9               1.00   0.00  0.00  0.00  0.00  1.00  0.00  0.00  0.00  0.00
  WSP8WSP8A               1.05   0.00  0.00  0.00  0.00  1.00  0.00  0.00  0.76  0.00
  WSP9AWSP9B              1.37   0.00  0.00  0.00  0.01  0.99  0.00  0.00  0.60  0.00
  WSP9BWSP9C              1.00   0.00  0.00  0.00  0.01  0.99  0.00  0.00  0.95  0.00
  WSP9CWSP10              2.63   0.00  0.00  0.00  0.00  1.00  0.00  0.00  0.00  0.00
  WSP9WSP9A               1.22   0.00  0.00  0.00  0.01  0.99  0.00  0.00  0.59  0.00
  WSS1VG7A                1.00   0.00  0.00  0.00  0.00  0.00  0.00  1.00  0.00  0.00
  WT27BDS103              1.00   0.00  0.00  0.00  0.00  0.00  0.00  1.00  0.00  0.00
  WT28WT27                1.00   0.00  0.00  0.00  0.99  0.01  0.00  0.00  0.97  0.00
  WT29WT28                1.00   0.00  0.00  0.00  0.00  0.00  0.00  1.00  0.00  0.00
  WT30WT29                1.00   0.00  0.00  0.00  1.00  0.00  0.00  0.00  0.45  0.00
  WT31WT30                1.00   0.00  0.00  0.00  0.00  0.00  0.00  1.00  0.00  0.00
  WT32WT31                1.23   0.00  0.00  0.00  0.00  0.00  0.00  1.00  0.00  0.00
  WT33WT32                1.00   0.00  0.00  0.00  1.00  0.00  0.00  0.00  1.00  0.00
  WT34WT33                1.00   0.00  0.01  0.00  0.99  0.00  0.00  0.00  0.98  0.00
  WT35WT34                1.00   0.01  0.00  0.00  0.00  0.00  0.00  0.99  0.00  0.00
  WT36WT35                1.00   0.00  0.00  0.00  0.00  0.00  0.00  1.00  0.00  0.00
  WT37WT36                1.00   0.00  0.00  0.00  0.00  0.00  0.00  1.00  0.00  0.00
  WT38WT37                1.00   0.00  0.00  0.00  0.00  0.00  0.00  1.00  0.00  0.00
  WT39WT38                1.00   0.01  0.00  0.00  0.00  0.00  0.00  0.99  0.00  0.00
  Z16225ABV57             1.00   0.00  0.00  0.00  0.00  1.00  0.00  0.00  0.00  0.00
  Z17702GZ17702H          1.00   0.00  0.00  0.00  1.00  0.00  0.00  0.00  0.94  0.00
  Z17702HSN22             2.25   0.00  0.00  0.00  0.68  0.00  0.00  0.31  0.20  0.00
  ZPSL20APSL20            1.00   0.14  0.11  0.00  0.75  0.00  0.00  0.00  0.00  0.00
  ZPSL20CPSL20            1.00   0.14  0.11  0.00  0.75  0.00  0.00  0.00  0.00  0.00
  ZPSL20EZPSL20F          1.00   0.14  0.00  0.00  0.86  0.00  0.00  0.00  0.00  0.00
  ZTS8ATS8               10.21   0.04  0.00  0.00  0.00  0.00  0.00  0.96  0.00  0.00
  
  
  *************************
  Conduit Surcharge Summary
  *************************
  
  ----------------------------------------------------------------------------
                                                           Hours        Hours 
                         --------- Hours Full --------   Above Full   Capacity
  Conduit                Both Ends  Upstream  Dnstream   Normal Flow   Limited
  ----------------------------------------------------------------------------
  A145TS4                     0.01      0.01      6.69      0.01         0.01
  LS#30Z16225A                0.01      2.05      0.01      0.11         0.01
  LS#8SEV2                    0.01      0.10      0.01      0.12         0.01
  OSR13OSR12                  0.01      0.01      0.01     29.77         0.01
  OSR5OSR4                    0.01      0.01      0.01     29.48         0.01
  PE1LS#8W                    0.01      0.01      0.07      0.01         0.01
  PSL20PSL19                  0.01      0.01      0.60      0.01         0.01
  PSL2ZPSL2A                  0.01      0.01     29.54      0.01         0.01
  PSR28LS#30W                 0.01      0.01      0.06      0.01         0.01
  SY2LS#33W                   0.01      0.01      0.38      0.01         0.01
  VG6VG5A                     0.01      0.01      0.01     21.87         0.01
  ZPSL20APSL20                0.01      0.01     22.82      0.01         0.01
  ZPSL20CPSL20                0.01      0.01     22.82      0.01         0.01
  ZPSL20EZPSL20F             22.82     22.95     22.82      1.46         1.30
  
  
  ***************
  Pumping Summary
  ***************
  
  ---------------------------------------------------------------------------------------------------------
                                                  Min       Avg       Max     Total     Power    % Time Off
                        Percent   Number of      Flow      Flow      Flow    Volume     Usage    Pump Curve
  Pump                 Utilized   Start-Ups       GPM       GPM       GPM  10^6 gal     Kw-hr    Low   High
  ---------------------------------------------------------------------------------------------------------
  LS#34AP2                 0.00           0      0.00      0.00      0.00     0.000      0.00    0.0    0.0
  LS#34AP3                 0.00           0      0.00      0.00      0.00     0.000      0.00    0.0    0.0
  LS30-1                 100.00           1      0.00     24.59    180.37     0.043      3.01    0.0    0.0
  LS33-1                  80.03           2      0.00      1.87    122.26     0.003      0.09    0.0    0.0
  LS34A-1                  4.76           8      0.00   1701.81   2913.79     0.145     32.16    0.0    0.0
  LS8-1                    0.41           1      0.00    175.23    195.79     0.001      0.21    0.0    0.0
  

  Analysis begun on:  Wed Jan 02 04:49:42 2019
  Analysis ended on:  Wed Jan 02 04:50:31 2019
  Total elapsed time: 00:00:49