
  EPA STORM WATER MANAGEMENT MODEL - VERSION 5.1 (Build 5.1.012)
  --------------------------------------------------------------

  
  *********************************************************
  NOTE: The summary statistics displayed in this report are
  based on results found at every computational time step,  
  not just on results from each reporting time step.
  *********************************************************
  
  ****************
  Analysis Options
  ****************
  Flow Units ............... CMS
  Process Models:
    Rainfall/Runoff ........ YES
    RDII ................... NO
    Snowmelt ............... NO
    Groundwater ............ NO
    Flow Routing ........... YES
    Ponding Allowed ........ NO
    Water Quality .......... YES
  Infiltration Method ...... CURVE_NUMBER
  Flow Routing Method ...... KINWAVE
  Starting Date ............ 12/07/2007 00:00:00
  Ending Date .............. 12/09/2007 12:00:00
  Antecedent Dry Days ...... 0.0
  Report Time Step ......... 00:30:00
  Wet Time Step ............ 00:30:00
  Dry Time Step ............ 01:00:00
  Routing Time Step ........ 30.00 sec
  
  
  **************************        Volume         Depth
  Runoff Quantity Continuity     hectare-m            mm
  **************************     ---------       -------
  Initial LID Storage ......         0.059         0.006
  Total Precipitation ......       299.512        31.100
  Evaporation Loss .........        23.784         2.470
  Infiltration Loss ........        84.788         8.804
  Surface Runoff ...........       188.089        19.530
  Final Storage ............         4.352         0.452
  Continuity Error (%) .....        -0.481
  
  
  **************************           TSS            TP           TKN
  Runoff Quality Continuity             kg            kg            kg
  **************************    ----------    ----------    ----------
  Initial Buildup ..........         0.000         0.000      2353.395
  Surface Buildup ..........     62228.438       677.169      5661.308
  Wet Deposition ...........     29951.341         0.000         0.000
  Sweeping Removal .........         0.000         0.000         0.000
  Infiltration Loss ........      8448.646         0.000         0.000
  BMP Removal ..............      3936.330        50.727       234.758
  Surface Runoff ...........     45016.502       284.647      4269.481
  Remaining Buildup ........     32554.732       341.702      3509.315
  Continuity Error (%) .....         2.412         0.014         0.014
  
  
  **************************        Volume        Volume
  Flow Routing Continuity        hectare-m      10^6 ltr
  **************************     ---------     ---------
  Dry Weather Inflow .......        15.117       151.174
  Wet Weather Inflow .......       188.087      1880.890
  Groundwater Inflow .......         0.000         0.000
  RDII Inflow ..............         0.000         0.000
  External Inflow ..........         0.000         0.000
  External Outflow .........       116.308      1163.096
  Flooding Loss ............        86.704       867.047
  Evaporation Loss .........         0.038         0.381
  Exfiltration Loss ........         0.000         0.000
  Initial Stored Volume ....         0.000         0.000
  Final Stored Volume ......         0.370         3.705
  Continuity Error (%) .....        -0.107
  
  
  **************************           TSS            TP           TKN
  Quality Routing Continuity            kg            kg            kg
  **************************    ----------    ----------    ----------
  Dry Weather Inflow .......         0.000         0.000         0.000
  Wet Weather Inflow .......     44964.964       284.390      4263.706
  Groundwater Inflow .......         0.000         0.000         0.000
  RDII Inflow ..............         0.000         0.000         0.000
  External Inflow ..........         0.000         0.000         0.000
  External Outflow .........     34992.249       260.728      3961.045
  Flooding Loss ............     10619.758        26.171       373.917
  Exfiltration Loss ........         0.000         0.000         0.000
  Mass Reacted .............         0.000         0.000         0.000
  Initial Stored Mass ......         0.000         0.000         0.000
  Final Stored Mass ........         0.001         0.000         0.000
  Continuity Error (%) .....        -1.439        -0.882        -1.671
  
  
  ********************************
  Highest Flow Instability Indexes
  ********************************
  All links are stable.
  
  
  *************************
  Routing Time Step Summary
  *************************
  Minimum Time Step           :    30.00 sec
  Average Time Step           :    30.00 sec
  Maximum Time Step           :    30.00 sec
  Percent in Steady State     :     0.00
  Average Iterations per Step :     1.03
  Percent Not Converging      :     0.00
  
  
  ***************************
  Subcatchment Runoff Summary
  ***************************
  
  --------------------------------------------------------------------------------------------------------
                            Total      Total      Total      Total      Total       Total     Peak  Runoff
                           Precip      Runon       Evap      Infil     Runoff      Runoff   Runoff   Coeff
  Subcatchment                 mm         mm         mm         mm         mm    10^6 ltr      CMS
  --------------------------------------------------------------------------------------------------------
  1                         31.10       0.00       0.75      29.05       1.38       35.13     4.78   0.044
  2                         31.10       0.00       3.76       2.31      25.24       83.29     4.60   0.812
  3                         31.10       0.00       3.67       2.94      23.95       78.70     4.26   0.770
  4                         31.10       0.00       3.71       2.26      25.10       42.17     2.30   0.807
  5                         31.10       0.00       1.71       1.54      28.02       36.99     1.78   0.901
  6                         31.10       0.00       3.00       1.41      26.44       62.12     3.15   0.850
  7                         31.10       0.00       3.29       1.80      25.96       36.60     1.93   0.835
  8                         31.10       0.00       3.15       1.54      25.43      123.32     5.46   0.818
  9                         31.10       0.00       3.39       1.80      23.68      198.70     6.40   0.761
  10                        31.10       0.00       3.33       1.80      24.91      135.26     6.07   0.801
  11                        31.10       0.00       2.44       0.54      28.25      612.83    30.45   0.908
  12                        31.10       0.00       3.63       2.31      25.40       57.14     3.16   0.817
  13                        31.10       0.00       3.61       2.18      25.58       65.22     3.57   0.822
  14                        31.10       0.00       3.64       2.18      25.49      110.37     6.04   0.820
  15                        31.10       0.00       3.34       1.80      24.74      119.98     5.17   0.795
  16                        31.10       0.00       3.16       1.67      26.62       83.07     4.38   0.856
  

  ***********************
  LID Performance Summary
  ***********************

  --------------------------------------------------------------------------------------------------------------------
                                         Total      Evap     Infil   Surface    Drain    Initial     Final  Continuity
                                        Inflow      Loss      Loss   Outflow   Outflow   Storage   Storage       Error
  Subcatchment      LID Control             mm        mm        mm        mm        mm        mm        mm           %
  --------------------------------------------------------------------------------------------------------------------
  3                 greenroofs           31.10      4.01     12.20     11.48      0.00      2.40      5.87       -0.21
  11                VSwale           494611.32      1.27      0.54 493954.39      0.00      0.00      0.00        0.13
  11                greenroofs       494611.32      4.11     22.49 494579.33      0.00      2.55      8.06       -0.00
  11                RainBarrels      852755.62      0.00      0.00 852724.73     30.00      0.11      1.00       -0.00
  
  ****************************
  Subcatchment Washoff Summary
  ****************************
  
  --------------------------------------------------------------
                                 TSS            TP           TKN
  Subcatchment                    kg            kg            kg
  --------------------------------------------------------------
  1                          351.258         0.000         0.000
  2                         1032.684         2.994        35.717
  3                         1264.156         4.133        42.712
  4                          625.086         3.118        36.370
  5                         1491.268        11.234       128.624
  6                         2122.267        12.165       139.904
  7                         1085.671         8.843       103.017
  8                         4919.736        35.037       393.854
  9                         9930.857        99.515      2147.851
  10                        5234.689        35.289       396.855
  11                        6128.312         0.000         0.000
  12                         869.642         4.367        53.325
  13                        1385.217        10.907       131.092
  14                        2069.773         7.811        93.723
  15                        4319.406        33.916       380.735
  16                        2186.481        15.319       185.703
  --------------------------------------------------------------
  System                   45016.502       284.647      4269.481
  
  
  ******************
  Node Depth Summary
  ******************
  
  ---------------------------------------------------------------------------------
                                 Average  Maximum  Maximum  Time of Max    Reported
                                   Depth    Depth      HGL   Occurrence   Max Depth
  Node                 Type       Meters   Meters   Meters  days hr:min      Meters
  ---------------------------------------------------------------------------------
  17                   JUNCTION     0.01     0.20  1699.20     0  12:00        0.20
  18                   JUNCTION     0.02     0.24  1648.24     0  12:01        0.24
  20                   JUNCTION     0.05     0.43  1516.43     0  12:00        0.43
  21                   JUNCTION     0.05     0.43  1488.93     0  12:03        0.43
  22                   JUNCTION     0.45     3.00  1403.00     0  07:34        3.00
  23                   JUNCTION     0.19     0.65  1286.15     0  12:01        0.65
  24                   JUNCTION     0.07     0.64  1670.64     0  12:00        0.64
  25                   JUNCTION     0.61     4.00  1538.00     0  06:51        4.00
  26                   JUNCTION     0.19     1.00  1523.00     0  06:55        1.00
  27                   JUNCTION     0.07     0.42  1500.42     0  12:00        0.42
  28                   JUNCTION     0.25     0.85  1270.85     0  12:11        0.84
  29                   JUNCTION     0.00     0.00  3876.00     0  00:00        0.00
  30                   JUNCTION     0.00     0.00  3000.00     0  00:00        0.00
  31                   JUNCTION     0.20     1.00  1330.00     0  07:45        1.00
  32                   JUNCTION     0.11     0.28  1387.98     0  12:00        0.28
  33                   JUNCTION     3.98     4.00  1273.50     0  00:18        4.00
  34                   JUNCTION     0.25     0.86  1285.86     0  12:01        0.85
  35                   JUNCTION     0.07     0.42  1270.92     0  12:06        0.41
  36                   JUNCTION     0.00     0.00     0.00     0  00:00        0.00
  
  
  *******************
  Node Inflow Summary
  *******************
  
  -------------------------------------------------------------------------------------------------
                                  Maximum  Maximum                  Lateral       Total        Flow
                                  Lateral    Total  Time of Max      Inflow      Inflow     Balance
                                   Inflow   Inflow   Occurrence      Volume      Volume       Error
  Node                 Type           CMS      CMS  days hr:min    10^6 ltr    10^6 ltr     Percent
  -------------------------------------------------------------------------------------------------
  17                   JUNCTION     4.777    4.777     0  12:00        35.1        35.1       0.000
  18                   JUNCTION     4.603    9.280     0  12:01        83.3         118       0.000
  20                   JUNCTION     8.339   17.345     0  12:00         158         276       0.000
  21                   JUNCTION     3.147   20.437     0  12:01        62.1         339       0.000
  22                   JUNCTION     1.928   22.230     0  12:04        36.6         375      -0.000
  23                   JUNCTION     5.462   16.017     0  12:01         123         609       0.000
  24                   JUNCTION    30.448   30.448     0  12:00         613         613       0.000
  25                   JUNCTION     9.195   39.633     0  12:00         168         780       0.000
  26                   JUNCTION     3.568    7.533     0  12:00        65.2         218       0.000
  27                   JUNCTION     5.165   12.696     0  12:00         120         338       0.000
  28                   JUNCTION     6.066   38.596     0  12:00         135   1.16e+003       0.000
  29                   JUNCTION     0.000    0.000     0  00:00           0           0       0.000 ltr
  30                   JUNCTION     0.000    0.000     0  00:00           0           0       0.000 ltr
  31                   JUNCTION     0.000    3.846     0  07:44           0         136       0.000
  32                   JUNCTION     7.100    7.100     0  12:00         350         350       0.000
  33                   JUNCTION     0.000   38.595     0  12:00           0   1.16e+003       0.000
  34                   JUNCTION     0.000   16.017     0  12:01           0         609       0.000
  35                   JUNCTION     4.382   16.959     0  12:00        83.1         421       0.000
  36                   JUNCTION     0.000    0.000     0  00:00           0           0       0.000 ltr
  
  
  *********************
  Node Flooding Summary
  *********************
  
  Flooding refers to all water that overflows a node, whether it ponds or not.
  --------------------------------------------------------------------------
                                                             Total   Maximum
                                 Maximum   Time of Max       Flood    Ponded
                        Hours       Rate    Occurrence      Volume    Volume
  Node                 Flooded       CMS   days hr:min    10^6 ltr   1000 m3
  --------------------------------------------------------------------------
  22                      7.35    18.670      0  12:04     239.098     0.000
  25                      8.50    35.667      0  12:00     627.945     0.000
  
  
  ********************
  Link Flow Summary
  ********************
  
  -----------------------------------------------------------------------------
                                 Maximum  Time of Max   Maximum    Max/    Max/
                                  |Flow|   Occurrence   |Veloc|    Full    Full
  Link                 Type          CMS  days hr:min     m/sec    Flow   Depth
  -----------------------------------------------------------------------------
  1                    CONDUIT     0.000     0  00:00      0.00    0.00    0.00
  2                    CONDUIT     4.741     0  12:02      3.00    0.01    0.05
  3                    CONDUIT     9.244     0  12:05      4.85    0.01    0.06
  4                    CONDUIT    17.318     0  12:03      5.56    0.05    0.13
  5                    CONDUIT    20.398     0  12:06      5.62    0.04    0.12
  8                    CONDUIT     0.000     0  00:00      0.00    0.00    0.00
  9                    CONDUIT    30.487     0  12:01      9.57    0.08    0.16
  10                   CONDUIT     4.254     0  06:54      5.88    1.07    1.00
  11                   CONDUIT     7.543     0  12:01      4.02    0.03    0.09
  13                   CONDUIT     3.846     0  07:44      5.41    1.08    1.00
  14                   CONDUIT     3.728     0  15:03      2.72    0.01    0.04
  15                   CONDUIT     7.067     0  12:05      4.99    0.05    0.14
  16                   CONDUIT    38.595     0  12:00      6.11    0.08    0.19
  17                   CONDUIT    16.017     0  12:01      2.90    0.07    0.16
  18                   CONDUIT    15.914     0  12:11      2.21    0.10    0.21
  20                   CONDUIT    12.697     0  12:06      6.16    0.03    0.08
  21                   CONDUIT    16.959     0  12:00     10.50    0.02    0.06
  
  
  *************************
  Conduit Surcharge Summary
  *************************
  
  ----------------------------------------------------------------------------
                                                           Hours        Hours 
                         --------- Hours Full --------   Above Full   Capacity
  Conduit                Both Ends  Upstream  Dnstream   Normal Flow   Limited
  ----------------------------------------------------------------------------
  10                          8.49      8.49      8.49      8.50         8.49
  13                          7.34      7.34      7.34      7.42         7.34
  
  
  ***************************
  Link Pollutant Load Summary
  ***************************
  
  --------------------------------------------------------------
                                 TSS            TP           TKN
  Link                            kg            kg            kg
  --------------------------------------------------------------
  1                            0.000         0.000         0.000
  2                          351.600         0.000         0.000
  3                         1388.836         3.061        36.877
  4                         4801.254        21.600       246.927
  5                         6998.302        34.003       393.380
  8                            0.000         0.000         0.000
  9                         6121.464         0.000         0.000
  10                        1880.139         4.443        33.537
  11                        3276.454        15.431       166.598
  13                        4707.368        24.477       238.573
  14                        4748.870        24.605       242.255
  15                        9949.660        99.283      2146.949
  16                      3.499e+004       260.728      3961.045
  17                      1.969e+004       158.955      2788.781
  18                      1.971e+004       158.941      2791.727
  20                        7699.533        51.043       574.640
  21                        9928.997        66.437       763.944
  

  Analysis begun on:  Wed Jan 02 08:32:24 2019
  Analysis ended on:  Wed Jan 02 08:32:24 2019
  Total elapsed time: < 1 sec