
  EPA STORM WATER MANAGEMENT MODEL - VERSION 5.1 (Build 5.1.012)
  --------------------------------------------------------------

  WARNING 04: minimum elevation drop used for Conduit 202194
  WARNING 04: minimum elevation drop used for Conduit 202428
  WARNING 04: minimum elevation drop used for Conduit 210391
  WARNING 04: minimum elevation drop used for Conduit 212117
  WARNING 04: minimum elevation drop used for Conduit 212224
  WARNING 04: minimum elevation drop used for Conduit 212232
  WARNING 04: minimum elevation drop used for Conduit 212236
  WARNING 04: minimum elevation drop used for Conduit 212530
  WARNING 04: minimum elevation drop used for Conduit 212540
  WARNING 04: minimum elevation drop used for Conduit 45712
  WARNING 04: minimum elevation drop used for Conduit 45756
  WARNING 04: minimum elevation drop used for Conduit 45828
  WARNING 04: minimum elevation drop used for Conduit 45829
  WARNING 04: minimum elevation drop used for Conduit 45842
  WARNING 04: minimum elevation drop used for Conduit 47215
  WARNING 04: minimum elevation drop used for Conduit 47222
  WARNING 04: minimum elevation drop used for Conduit 47249
  WARNING 04: minimum elevation drop used for Conduit 47252
  WARNING 04: minimum elevation drop used for Conduit 47256
  WARNING 04: minimum elevation drop used for Conduit 47261
  WARNING 04: minimum elevation drop used for Conduit 47311
  WARNING 04: minimum elevation drop used for Conduit 47325
  WARNING 04: minimum elevation drop used for Conduit 47386
  WARNING 04: minimum elevation drop used for Conduit 47493
  WARNING 04: minimum elevation drop used for Conduit 47520
  WARNING 04: minimum elevation drop used for Conduit 48644
  WARNING 04: minimum elevation drop used for Conduit 48672
  WARNING 04: minimum elevation drop used for Conduit 48700
  WARNING 04: minimum elevation drop used for Conduit 48708
  WARNING 04: minimum elevation drop used for Conduit 48753
  WARNING 04: minimum elevation drop used for Conduit 48761
  WARNING 04: minimum elevation drop used for Conduit 48798
  WARNING 04: minimum elevation drop used for Conduit 50021
  WARNING 04: minimum elevation drop used for Conduit 50115
  WARNING 04: minimum elevation drop used for Conduit 50131
  WARNING 04: minimum elevation drop used for Conduit 50157
  WARNING 04: minimum elevation drop used for Conduit 50163
  WARNING 04: minimum elevation drop used for Conduit 50214
  WARNING 04: minimum elevation drop used for Conduit 50246
  WARNING 04: minimum elevation drop used for Conduit 50249
  WARNING 04: minimum elevation drop used for Conduit 50251
  WARNING 04: minimum elevation drop used for Conduit 50257
  WARNING 04: minimum elevation drop used for Conduit 50283
  WARNING 04: minimum elevation drop used for Conduit 50290
  WARNING 04: minimum elevation drop used for Conduit 51705
  WARNING 04: minimum elevation drop used for Conduit 51754
  WARNING 04: minimum elevation drop used for Conduit 51777
  WARNING 04: minimum elevation drop used for Conduit 51957
  WARNING 04: minimum elevation drop used for Conduit 53163
  WARNING 04: minimum elevation drop used for Conduit 53254
  WARNING 04: minimum elevation drop used for Conduit 53267
  WARNING 04: minimum elevation drop used for Conduit 53277
  WARNING 04: minimum elevation drop used for Conduit 53295
  WARNING 04: minimum elevation drop used for Conduit 53323
  WARNING 04: minimum elevation drop used for Conduit 54668
  WARNING 04: minimum elevation drop used for Conduit 54673
  WARNING 04: minimum elevation drop used for Conduit 54679
  WARNING 04: minimum elevation drop used for Conduit 54732
  WARNING 04: minimum elevation drop used for Conduit 54766
  WARNING 04: minimum elevation drop used for Conduit 54783
  WARNING 04: minimum elevation drop used for Conduit 54943
  WARNING 04: minimum elevation drop used for Conduit 54966
  WARNING 04: minimum elevation drop used for Conduit 56133
  WARNING 04: minimum elevation drop used for Conduit 56159
  WARNING 04: minimum elevation drop used for Conduit 56212
  WARNING 04: minimum elevation drop used for Conduit 56245
  WARNING 04: minimum elevation drop used for Conduit 56258
  WARNING 04: minimum elevation drop used for Conduit 56308
  WARNING 04: minimum elevation drop used for Conduit 57016
  WARNING 04: minimum elevation drop used for Conduit 57335
  WARNING 04: minimum elevation drop used for Conduit 57676
  WARNING 04: minimum elevation drop used for Conduit CDT-37
  WARNING 04: minimum elevation drop used for Conduit N02-009-N02-008
  WARNING 04: minimum elevation drop used for Conduit N03-004-N03-002
  WARNING 04: minimum elevation drop used for Conduit N06-010-N06-009
  WARNING 04: minimum elevation drop used for Conduit N19-001B-N19-001A
  WARNING 04: minimum elevation drop used for Conduit N24-004-N24-005
  WARNING 04: minimum elevation drop used for Conduit ROAD-3
  WARNING 04: minimum elevation drop used for Conduit ROAD-5
  WARNING 10: crest elevation raised to downstream invert for regulator Link ORI-35
  WARNING 10: crest elevation raised to downstream invert for regulator Link TP_EXCEEDENCE
  
  **********************           Volume        Volume
  Rainfall Dependent I/I        acre-feet      10^6 gal
  **********************        ---------     ---------
  Sewershed Rainfall ......        62.584        20.394
  RDII Produced ...........        12.512         4.077
  RDII Ratio ..............         0.200
  
  
  *********************************************************
  NOTE: The summary statistics displayed in this report are
  based on results found at every computational time step,  
  not just on results from each reporting time step.
  *********************************************************
  
  ****************
  Analysis Options
  ****************
  Flow Units ............... CFS
  Process Models:
    Rainfall/Runoff ........ YES
    RDII ................... YES
    Snowmelt ............... YES
    Groundwater ............ NO
    Flow Routing ........... YES
    Ponding Allowed ........ YES
    Water Quality .......... NO
  Infiltration Method ...... HORTON
  Flow Routing Method ...... DYNWAVE
  Starting Date ............ 02/14/2017 00:00:00
  Ending Date .............. 02/18/2017 00:00:00
  Antecedent Dry Days ...... 5.0
  Report Time Step ......... 00:05:00
  Wet Time Step ............ 00:05:00
  Dry Time Step ............ 01:00:00
  Routing Time Step ........ 30.00 sec
  Variable Time Step ....... YES
  Maximum Trials ........... 6
  Number of Threads ........ 1
  Head Tolerance ........... 0.005000 ft
  
  
  **************************        Volume         Depth
  Runoff Quantity Continuity     acre-feet        inches
  **************************     ---------       -------
  Initial Snow Cover .......       227.020         1.000
  Total Precipitation ......       559.217         2.463
  Evaporation Loss .........        24.675         0.109
  Infiltration Loss ........       531.031         2.339
  Surface Runoff ...........       228.528         1.007
  Snow Removed .............         0.000         0.000
  Final Snow Cover .........         0.000         0.000
  Final Storage ............         2.039         0.009
  Continuity Error (%) .....        -0.005
  
  
  **************************        Volume        Volume
  Flow Routing Continuity        acre-feet      10^6 gal
  **************************     ---------     ---------
  Dry Weather Inflow .......        33.077        10.779
  Wet Weather Inflow .......       228.526        74.469
  Groundwater Inflow .......         0.000         0.000
  RDII Inflow ..............        12.511         4.077
  External Inflow ..........         7.934         2.585
  External Outflow .........       271.764        88.558
  Flooding Loss ............         8.375         2.729
  Evaporation Loss .........         0.015         0.005
  Exfiltration Loss ........         0.000         0.000
  Initial Stored Volume ....         0.140         0.046
  Final Stored Volume ......         1.850         0.603
  Continuity Error (%) .....         0.065
  
  
  *************************
  Highest Continuity Errors
  *************************
  Node C07-089 (15.26%)
  Node N24-045 (7.07%)
  Node TUNNEL_STORAGE (4.08%)
  Node JCT-72 (1.87%)
  Node JCT-54 (-1.85%)
  
  
  ***************************
  Time-Step Critical Elements
  ***************************
  Link C13-025-C13-025B (56.85%)
  Link 57331 (39.41%)
  Link N06-010-N06-009 (1.14%)
  
  
  ********************************
  Highest Flow Instability Indexes
  ********************************
  Link OUT_TO_TP (7)
  Link T07-017-T07-016 (6)
  Link C12-003A-T07-014 (4)
  Link CDT-33 (2)
  Link CDT-37 (2)
  
  
  *************************
  Routing Time Step Summary
  *************************
  Minimum Time Step           :     1.38 sec
  Average Time Step           :    20.03 sec
  Maximum Time Step           :    30.00 sec
  Percent in Steady State     :    -0.00
  Average Iterations per Step :     2.65
  Percent Not Converging      :     1.09
  
  
  ***************************
  Subcatchment Runoff Summary
  ***************************
  
  --------------------------------------------------------------------------------------------------------
                            Total      Total      Total      Total      Total       Total     Peak  Runoff
                           Precip      Runon       Evap      Infil     Runoff      Runoff   Runoff   Coeff
  Subcatchment                 in         in         in         in         in    10^6 gal      CFS
  --------------------------------------------------------------------------------------------------------
  SUB-380                    2.46       0.00       0.15       1.93       1.37        1.43     2.17   0.556
  SUB-388                    2.46       0.00       0.15       1.88       1.42        0.81     1.32   0.577
  SUB-394                    2.46       0.00       0.16       1.80       1.48        3.16     4.08   0.599
  SUB-406                    2.46       0.00       0.12       2.24       1.09        1.70     2.97   0.444
  SUB-410                    2.46       0.00       0.12       2.23       1.10        1.98     2.57   0.448
  SUB-418                    2.46       0.00       0.12       2.20       1.13        0.69     1.07   0.459
  SUB-442                    2.46       0.00       0.20       1.39       1.86        0.71     1.06   0.753
  SUB-446                    2.46       0.00       0.09       2.49       0.87        0.82     1.36   0.354
  SUB-452                    2.46       0.00       0.13       2.16       1.16        2.63     3.41   0.470
  SUB-456                    2.46       0.00       0.10       2.43       0.93        0.07     0.17   0.378
  SUB-458                    2.46       0.00       0.19       1.52       1.74        1.93     2.51   0.706
  SUB-466                    2.46       0.00       0.08       2.62       0.76        0.95     1.75   0.308
  SUB-470                    2.46       0.00       0.12       2.21       1.12        1.10     1.73   0.455
  SUB-492                    2.46       0.00       0.02       3.21       0.22        0.15     0.45   0.091
  SUB-496                    2.46       0.00       0.10       2.40       0.95        0.51     0.92   0.388
  SUB-500                    2.46       0.00       0.14       1.98       1.33        1.96     2.64   0.539
  SUB-504                    2.46       0.00       0.09       2.49       0.88        0.46     0.91   0.356
  SUB-506                    2.46       0.00       0.03       3.14       0.29        0.06     0.20   0.119
  SUB-524                    2.46       0.00       0.10       2.47       0.90        0.59     1.16   0.364
  SUB-530                    2.46       0.00       0.07       2.77       0.62        0.06     0.18   0.253
  SUB-532                    2.46       0.00       0.09       2.58       0.79        2.85     4.82   0.323
  SUB-536                    2.46       0.00       0.09       2.52       0.85        0.62     1.11   0.344
  SUB-538                    2.46       0.00       0.09       2.48       0.88        0.80     1.49   0.359
  SUB-548                    2.46       0.00       0.05       2.92       0.49        0.03     0.10   0.199
  SUB-550                    2.46       0.00       0.11       2.34       1.01        0.53     1.05   0.409
  SUB-552                    2.46       0.00       0.07       2.74       0.65        0.10     0.32   0.265
  SUB-556                    2.46       0.00       0.10       2.41       0.95        0.47     0.88   0.385
  SUB-558                    2.46       0.00       0.09       2.55       0.82        0.77     1.48   0.334
  SUB-560                    2.46       0.00       0.10       2.42       0.94        0.75     1.48   0.382
  SUB-562                    2.46       0.00       0.09       2.49       0.87        1.31     2.33   0.354
  SUB-594                    2.46       0.00       0.09       2.53       0.84        0.58     1.03   0.341
  SUB-596                    2.46       0.00       0.08       2.60       0.77        0.85     1.53   0.313
  SUB-602                    2.46       0.00       0.10       2.47       0.89        0.84     1.35   0.360
  SUB-604                    2.46       0.00       0.10       2.43       0.93        0.78     1.40   0.376
  SUB-606                    2.46       0.00       0.11       2.29       1.06        0.71     1.18   0.429
  SUB-616                    2.46       0.00       0.09       2.50       0.86        1.38     2.02   0.349
  SUB-634                    2.46       0.00       0.06       2.78       0.61        1.04     1.97   0.247
  SUB-638                    2.46       0.00       0.08       2.66       0.72        0.45     0.88   0.294
  SUB-642                    2.46       0.00       0.09       2.56       0.81        2.04     2.86   0.329
  SUB-644                    2.46       0.00       0.12       2.17       1.16        0.48     0.81   0.469
  SUB-666                    2.46       0.00       0.08       2.63       0.75        0.07     0.22   0.304
  SUB-668                    2.46       0.00       0.08       2.67       0.71        0.82     1.35   0.289
  SUB-672                    2.46       0.00       0.12       2.26       1.07        3.29     4.29   0.435
  SUB-676                    2.46       0.00       0.11       2.31       1.03        1.63     2.47   0.418
  SUB-684                    2.46       0.00       0.12       2.21       1.13        1.32     2.29   0.457
  SUB-708                    2.46       0.00       0.11       2.34       1.00        0.61     1.07   0.408
  SUB-714                    2.46       0.00       0.14       2.00       1.31        0.77     1.23   0.531
  SUB-732                    2.46       0.00       0.07       2.78       0.62        0.88     1.62   0.250
  SUB-738                    2.46       0.00       0.11       2.29       1.05        1.48     2.13   0.425
  SUB-744                    2.46       0.00       0.06       2.83       0.57        0.29     0.63   0.230
  SUB-752                    2.46       0.00       0.12       2.27       1.07        2.27     3.16   0.433
  SUB-764                    2.46       0.00       0.08       2.59       0.78        0.54     1.04   0.317
  SUB-774                    2.46       0.00       0.10       2.43       0.93        0.81     1.41   0.377
  SUB-778                    2.46       0.00       0.10       2.41       0.95        0.56     0.96   0.385
  SUB-784                    2.46       0.00       0.07       2.69       0.70        0.09     0.28   0.285
  SUB-786                    2.46       0.00       0.14       2.02       1.29        1.66     2.16   0.523
  SUB-788                    2.46       0.00       0.10       2.36       0.99        0.51     1.00   0.401
  SUB-796                    2.46       0.00       0.11       2.29       1.05        0.77     1.39   0.426
  SUB-802                    2.46       0.00       0.13       2.15       1.17        1.40     1.96   0.476
  SUB-804                    2.46       0.00       0.17       1.68       1.60        1.43     1.88   0.649
  SUB-814                    2.46       0.00       0.17       1.68       1.60        1.73     2.42   0.649
  SUB-834                    2.46       0.00       0.14       2.05       1.27        0.63     1.07   0.514
  SUB-840                    2.46       0.00       0.11       2.27       1.07        1.17     1.91   0.433
  SUB-878                    2.46       0.00       0.08       2.58       0.79        0.62     1.17   0.322
  SUB-880                    2.46       0.00       0.08       2.60       0.78        0.50     0.96   0.316
  SUB-886                    2.46       0.00       0.12       2.19       1.14        2.45     3.56   0.463
  SUB-896                    2.46       0.00       0.15       1.87       1.43        0.07     0.17   0.582
  SUB-898                    2.46       0.00       0.11       2.27       1.07        0.36     0.69   0.436
  SUB-904                    2.46       0.00       0.11       2.38       0.97        1.85     2.40   0.393
  SUB-910                    2.46       0.00       0.09       2.54       0.83        0.46     0.83   0.337
  SUB-932                    2.46       0.00       0.13       2.07       1.26        0.19     0.41   0.510
  SUB-938                    2.46       0.00       0.09       2.51       0.86        0.25     0.52   0.348
  SUB-946                    2.46       0.00       0.09       2.50       0.86        0.84     1.50   0.351
  SUB-954                    2.46       0.00       0.10       2.44       0.91        0.84     1.48   0.371
  SUB-988                    2.46       0.00       0.11       2.37       0.98        2.16     2.80   0.397
  
  
  ******************
  Node Depth Summary
  ******************
  
  ---------------------------------------------------------------------------------
                                 Average  Maximum  Maximum  Time of Max    Reported
                                   Depth    Depth      HGL   Occurrence   Max Depth
  Node                 Type         Feet     Feet     Feet  days hr:min        Feet
  ---------------------------------------------------------------------------------
  C01-P102             JUNCTION     0.09     0.12   675.14     1  08:00        0.12
  C01-P103             JUNCTION     0.10     0.13   675.15     1  08:00        0.13
  C01-P104             JUNCTION     0.01     0.02   675.04     1  08:00        0.02
  C01-P108             JUNCTION     0.02     0.03   675.06     1  08:00        0.03
  C01-P109             JUNCTION     0.02     0.04   669.04     1  08:00        0.04
  C01-P110             JUNCTION     0.05     0.07   664.57     1  08:00        0.07
  C02-002              JUNCTION     0.33     0.56   681.22     0  14:26        0.56
  C02-003              JUNCTION     0.15     0.31   686.68     0  14:39        0.31
  C02-004              JUNCTION     0.55     1.10   687.45     0  14:39        1.10
  C02-005              JUNCTION     0.53     1.07   687.45     0  14:39        1.07
  C02-008              JUNCTION     0.03     0.04   688.56     3  08:00        0.04
  C02-008B             JUNCTION     0.03     0.04   688.97     3  08:00        0.04
  C02-009              JUNCTION     0.06     0.08   688.60     3  07:29        0.08
  C02-017              JUNCTION     0.05     0.07   688.67     3  07:41        0.07
  C02-018B             JUNCTION     0.09     0.12   694.26     3  08:00        0.12
  C02-032              JUNCTION     0.30     0.70   687.52     0  14:37        0.70
  C02-033              JUNCTION     0.02     0.02   688.13     1  08:00        0.02
  C02-035              JUNCTION     0.18     0.38   690.71     0  14:35        0.38
  C02-036              JUNCTION     0.02     0.03   694.26     0  08:00        0.03
  C02-037              JUNCTION     0.07     0.10   694.34     3  08:00        0.10
  C02-041              JUNCTION     0.08     0.11   694.35     3  08:00        0.11
  C02-042              JUNCTION     0.38     0.78   691.31     0  14:34        0.78
  C02-044              JUNCTION     0.02     0.03   694.19     1  12:47        0.03
  C02-047              JUNCTION     0.04     0.06   694.18     0  08:00        0.06
  C02-048              JUNCTION     0.07     0.09   694.21     0  08:00        0.09
  C02-049              JUNCTION     0.12     0.17   694.30     3  08:00        0.17
  C02-049B             JUNCTION     0.13     0.17   694.30     3  08:00        0.17
  C02-050              JUNCTION     0.13     0.17   694.30     3  08:00        0.17
  C02-051              JUNCTION     0.35     0.83   691.56     0  14:32        0.83
  C02-052              JUNCTION     0.20     0.53   691.56     0  14:32        0.53
  C02-054              JUNCTION     0.03     0.04   694.16     0  08:00        0.04
  C02-055              JUNCTION     0.11     0.15   694.27     3  08:00        0.15
  C02-056              JUNCTION     0.12     0.16   694.27     3  08:00        0.16
  C02-057              JUNCTION     0.27     0.63   691.96     0  14:31        0.63
  C02-058              JUNCTION     0.20     0.48   692.60     0  14:30        0.48
  C05-011              JUNCTION     0.35     0.59   671.39     0  14:28        0.59
  C05-014              JUNCTION     0.13     0.26   666.93     0  14:33        0.26
  C05-014B             JUNCTION     0.01     0.01   669.45     0  12:57        0.01
  C05-016              JUNCTION     0.06     0.15   669.91     0  14:01        0.15
  C05-022              JUNCTION     0.03     0.04   679.83     1  08:00        0.04
  C05-025A             JUNCTION     0.04     0.05   685.20     3  08:00        0.05
  C05-025B             JUNCTION     0.02     0.02   688.34     3  08:00        0.02
  C05-026              JUNCTION     0.04     0.05   686.30     1  08:00        0.05
  C05-027              JUNCTION     0.07     0.09   686.33     1  08:00        0.09
  C05-031A             JUNCTION     0.02     0.03   693.33     3  07:23        0.03
  C05-031B             JUNCTION     0.03     0.04   694.17     3  07:11        0.04
  C05-032              JUNCTION     0.02     0.03   693.89     0  07:13        0.03
  C05-033              JUNCTION     0.20     0.42   669.17     2  15:28        0.42
  C05-034              JUNCTION     0.01     0.01   671.88     0  13:00        0.01
  C05-037              JUNCTION     0.01     0.02   675.60     1  07:48        0.02
  C05-038              JUNCTION     0.20     0.41   670.36     2  15:26        0.41
  C05-039              JUNCTION     0.01     0.01   675.59     0  13:00        0.01
  C05-041              JUNCTION     0.43     0.86   670.80     2  15:25        0.86
  C05-043              JUNCTION     0.02     0.03   677.63     0  08:00        0.03
  C05-045              JUNCTION     0.07     0.09   677.68     3  08:00        0.09
  C05-047              JUNCTION     0.02     0.04   682.45     1  08:00        0.04
  C05-049              JUNCTION     0.05     0.07   682.55     0  08:00        0.07
  C05-052              JUNCTION     0.01     0.02   689.15     2  07:45        0.02
  C05-053              JUNCTION     0.01     0.02   686.08     2  07:57        0.02
  C05-056              JUNCTION     0.02     0.04   673.27     0  08:00        0.04
  C05-058              JUNCTION     0.01     0.02   673.32     0  08:00        0.02
  C05-063B             JUNCTION     0.01     0.02   684.16     0  07:54        0.02
  C05-063C             JUNCTION     0.02     0.03   685.10     3  07:08        0.03
  C05-065              JUNCTION     0.01     0.02   691.74     2  07:40        0.02
  C05-066              JUNCTION     0.03     0.04   677.81     1  08:04        0.04
  C05-067              JUNCTION     0.24     0.49   673.67     0  14:34        0.49
  C05-068              JUNCTION     0.06     0.12   681.67     0  14:34        0.12
  C05-068A             JUNCTION     0.12     0.22   681.82     0  14:33        0.22
  C05-081              JUNCTION     0.01     0.02   693.95     1  08:00        0.02
  C05-092              JUNCTION     0.03     0.04   685.78     3  08:00        0.04
  C05-092A             JUNCTION     0.10     0.14   685.90     3  08:00        0.14
  C05-092B             JUNCTION     0.02     0.02   688.02     3  08:00        0.02
  C05-094              JUNCTION     0.03     0.04   690.47     1  08:00        0.04
  C05-094A             JUNCTION     0.06     0.08   690.51     1  08:00        0.08
  C05-095              JUNCTION     0.02     0.02   693.61     0  07:55        0.02
  C05-101              JUNCTION     0.03     0.04   680.75     0  13:00        0.04
  C05-102              JUNCTION     0.01     0.01   682.57     2  12:57        0.01
  C05-103              JUNCTION     0.03     0.04   680.87     3  12:45        0.04
  C05-104              JUNCTION     0.01     0.01   682.57     1  13:00        0.01
  C05-105              JUNCTION     0.01     0.02   681.36     0  13:00        0.02
  C05-106              JUNCTION     0.02     0.03   679.97     0  13:00        0.03
  C05-107              JUNCTION     0.01     0.01   682.15     1  12:50        0.01
  C05-108              JUNCTION     0.03     0.04   682.88     3  12:20        0.04
  C05-109              JUNCTION     0.03     0.05   682.98     0  13:00        0.05
  C05-111              JUNCTION     0.02     0.04   684.92     1  12:50        0.04
  C05-112              JUNCTION     0.01     0.02   677.34     2  07:40        0.02
  C05-114              JUNCTION     0.02     0.02   674.74     3  07:40        0.02
  C05-116              JUNCTION     0.01     0.02   676.35     1  08:00        0.02
  C06-006              JUNCTION     0.14     0.32   670.85     0  14:34        0.32
  C06-013              JUNCTION     0.17     0.40   678.70     0  14:33        0.40
  C06-017              JUNCTION     0.01     0.01   689.32     3  12:21        0.01
  C06-021              JUNCTION     0.16     0.38   684.52     0  14:32        0.38
  C06-027              JUNCTION     0.00     0.01   695.08     0  13:00        0.01
  C06-028              JUNCTION     0.17     0.41   688.95     0  14:31        0.41
  C06-029              JUNCTION     0.18     0.41   688.96     0  14:32        0.41
  C06-034              JUNCTION     0.11     0.27   698.18     0  14:31        0.27
  C06-037              JUNCTION     0.15     0.38   698.86     0  14:30        0.38
  C06-040              JUNCTION     0.02     0.03   703.31     1  08:00        0.03
  C06-041              JUNCTION     0.10     0.24   702.45     0  14:32        0.24
  C06-042              JUNCTION     0.13     0.30   704.26     0  14:31        0.30
  C06-043              JUNCTION     0.02     0.03   705.36     1  08:00        0.03
  C06-044              JUNCTION     0.02     0.03   705.62     1  08:00        0.03
  C06-044A             JUNCTION     0.16     0.39   704.66     0  14:30        0.39
  C06-046              JUNCTION     0.02     0.03   707.46     1  08:00        0.03
  C06-047A             JUNCTION     0.01     0.02   711.11     1  07:59        0.02
  C06-048              JUNCTION     0.02     0.02   710.18     3  08:00        0.02
  C06-049              JUNCTION     0.03     0.05   692.66     1  08:00        0.05
  C06-052              JUNCTION     0.01     0.01   701.35     1  12:51        0.01
  C06-055              JUNCTION     0.06     0.08   692.70     3  08:00        0.08
  C06-056              JUNCTION     0.02     0.03   696.78     1  08:00        0.03
  C06-060              JUNCTION     0.00     0.01   704.05     3  12:53        0.01
  C06-062              JUNCTION     0.08     0.10   696.84     1  08:00        0.10
  C06-063A             JUNCTION     0.12     0.25   663.87     0  14:35        0.25
  C06-065              JUNCTION     0.04     0.06   678.93     1  08:03        0.06
  C06-066A             JUNCTION     0.01     0.02   684.38     1  12:51        0.02
  C06-068              JUNCTION     0.01     0.01   687.63     0  07:42        0.01
  C06-069              JUNCTION     0.05     0.08   684.33     1  08:00        0.08
  C06-071              JUNCTION     0.03     0.04   691.06     1  08:00        0.04
  C06-072              JUNCTION     0.10     0.13   691.16     1  08:00        0.13
  C06-079              JUNCTION     0.01     0.02   704.89     3  07:25        0.02
  C06-080              JUNCTION     0.02     0.02   707.40     0  07:11        0.02
  C06-087              JUNCTION     0.12     0.16   684.64     3  07:56        0.16
  C06-089              JUNCTION     0.04     0.05   688.54     3  08:00        0.05
  C06-090              JUNCTION     0.02     0.02   689.46     3  08:00        0.02
  C06-094              JUNCTION     0.03     0.04   698.17     3  08:00        0.04
  C06-097              JUNCTION     0.03     0.05   703.35     3  08:00        0.05
  C06-097A             JUNCTION     0.03     0.05   702.64     3  07:28        0.05
  C06-098              JUNCTION     0.03     0.05   704.47     3  08:00        0.05
  C06-100              JUNCTION     0.02     0.03   707.46     3  07:58        0.03
  C06-100A             JUNCTION     0.02     0.02   708.93     2  07:47        0.02
  C06-109              JUNCTION     0.01     0.02   712.13     2  09:00        0.02
  C06-111              JUNCTION     0.01     0.02   713.14     0  13:00        0.02
  C06-111A             JUNCTION     0.01     0.01   714.67     1  12:58        0.01
  C07-004              JUNCTION     0.05     0.08   685.00     0  04:11        0.08
  C07-006              JUNCTION     0.03     0.06   688.45     0  04:10        0.06
  C07-007              JUNCTION     0.02     0.04   694.07     0  04:05        0.04
  C07-008              JUNCTION     0.10     0.16   685.13     0  04:11        0.16
  C07-009              JUNCTION     0.04     0.07   687.89     0  04:10        0.07
  C07-010              JUNCTION     0.02     0.04   694.41     0  04:05        0.04
  C07-011              JUNCTION     0.25     0.47   677.45     0  04:35        0.47
  C07-012              JUNCTION     0.03     0.05   682.48     0  04:05        0.05
  C07-013              JUNCTION     0.03     0.05   681.63     0  04:10        0.05
  C07-020              JUNCTION     0.01     0.03   707.06     0  04:05        0.03
  C07-021B             JUNCTION     0.01     0.03   681.66     0  04:05        0.03
  C07-021C             JUNCTION     0.50     0.85   677.88     0  04:34        0.85
  C07-024              JUNCTION     0.04     0.08   682.75     0  04:10        0.08
  C07-025              JUNCTION     0.02     0.04   687.67     0  04:05        0.04
  C07-026              JUNCTION     0.08     0.13   682.80     0  04:10        0.13
  C07-027              JUNCTION     0.05     0.10   681.73     0  04:11        0.10
  C07-029A             JUNCTION     0.03     0.06   692.20     0  04:10        0.06
  C07-030              JUNCTION     0.03     0.05   697.38     0  04:07        0.05
  C07-032              JUNCTION     0.01     0.03   707.69     0  04:05        0.03
  C07-034A             JUNCTION     0.05     0.09   688.20     0  04:10        0.09
  C07-035              JUNCTION     0.22     0.42   678.00     0  04:33        0.42
  C07-036A             JUNCTION     0.04     0.06   702.69     0  04:07        0.06
  C07-042              JUNCTION     0.17     0.33   681.32     0  04:35        0.33
  C07-045              JUNCTION     0.02     0.04   687.59     0  04:05        0.04
  C07-050              JUNCTION     0.14     0.26   684.85     0  04:34        0.26
  C07-051              JUNCTION     0.02     0.04   688.54     0  04:05        0.04
  C07-055              JUNCTION     0.02     0.04   692.70     0  04:05        0.04
  C07-056              JUNCTION     0.16     0.32   686.53     0  04:33        0.32
  C07-057              JUNCTION     0.02     0.04   690.97     0  04:05        0.04
  C07-058              JUNCTION     0.19     0.37   687.40     0  04:32        0.37
  C07-061              JUNCTION     0.01     0.03   697.43     0  04:05        0.03
  C07-062              JUNCTION     0.27     0.51   687.71     0  04:32        0.51
  C07-064              JUNCTION     0.02     0.04   691.43     0  04:05        0.04
  C07-065              JUNCTION     0.02     0.05   709.83     0  04:05        0.05
  C07-066              JUNCTION     0.25     0.47   688.69     0  04:26        0.47
  C07-068              JUNCTION     0.19     0.37   688.36     0  04:27        0.37
  C07-069              JUNCTION     0.30     0.58   688.03     0  04:30        0.58
  C07-070              JUNCTION     0.01     0.03   701.69     0  04:10        0.03
  C07-071              JUNCTION     0.31     0.58   687.90     0  04:31        0.58
  C07-073              JUNCTION     0.01     0.03   703.81     0  04:10        0.03
  C07-075              JUNCTION     0.02     0.04   706.73     0  04:08        0.04
  C07-077              JUNCTION     0.02     0.04   708.74     0  04:04        0.04
  C07-080              JUNCTION     0.02     0.04   691.45     0  04:05        0.04
  C07-082              JUNCTION     0.08     0.16   690.16     0  04:10        0.16
  C07-083              JUNCTION     0.02     0.04   691.46     0  04:05        0.04
  C07-086              JUNCTION     0.06     0.13   691.63     0  04:08        0.13
  C07-087              JUNCTION     0.13     0.20   691.64     0  04:10        0.20
  C07-088              JUNCTION     0.05     0.10   693.10     0  03:58        0.10
  C07-089              JUNCTION     1.58     1.68   693.10     0  03:51        1.67
  C07-092              JUNCTION     0.04     0.09   694.79     0  03:38        0.09
  C07-093              JUNCTION     0.03     0.06   695.03     0  04:05        0.06
  C07-094              JUNCTION     0.04     0.09   695.04     0  04:05        0.09
  C07-096              JUNCTION     0.05     0.12   695.02     0  04:05        0.12
  C07-099              JUNCTION     0.03     0.06   695.36     0  04:05        0.06
  C07-100              JUNCTION     0.02     0.04   706.37     0  04:05        0.04
  C07-108              JUNCTION     0.02     0.04   699.24     0  04:05        0.04
  C07-109              JUNCTION     0.03     0.06   694.13     0  04:10        0.06
  C07-110              JUNCTION     0.08     0.12   694.20     0  04:09        0.12
  C07-P113             JUNCTION     0.03     0.04   691.45     0  15:00        0.04
  C07-P116             JUNCTION     0.02     0.03   685.43     0  15:00        0.03
  C10-001              JUNCTION     0.02     0.04   657.04     2  12:55        0.04
  C10-001A             JUNCTION     0.93     2.20   655.97     2  15:31        2.19
  C10-002              JUNCTION     0.03     0.05   658.05     2  12:30        0.05
  C10-008A             JUNCTION     0.02     0.03   663.52     0  13:00        0.03
  C10-012              JUNCTION     0.10     0.14   663.62     0  13:00        0.14
  C10-018              JUNCTION     0.00     0.01   663.56     0  13:00        0.01
  C12-001              JUNCTION     0.59     1.11   664.11     0  04:25        1.11
  C12-002              JUNCTION     0.43     0.79   665.68     0  04:25        0.79
  C12-003A             JUNCTION     0.28     0.67   662.75     0  04:27        0.67
  C12-003B             JUNCTION     0.57     1.03   663.76     0  04:26        1.03
  C12-004              JUNCTION     0.63     1.19   666.70     0  04:24        1.19
  C12-005              JUNCTION     0.43     0.79   667.81     0  04:23        0.79
  C12-007              JUNCTION     0.02     0.03   679.99     0  04:10        0.03
  C12-008              JUNCTION     0.42     0.77   670.48     0  04:23        0.77
  C12-010              JUNCTION     0.02     0.03   684.79     0  04:10        0.03
  C12-011              JUNCTION     0.50     0.95   672.17     0  04:22        0.94
  C12-014              JUNCTION     0.01     0.03   691.46     0  04:05        0.03
  C13-007              JUNCTION     0.04     0.08   669.92     0  04:15        0.08
  C13-009              JUNCTION     0.08     0.13   681.65     0  04:10        0.13
  C13-010              JUNCTION     0.03     0.05   681.58     0  04:10        0.05
  C13-011              JUNCTION     0.05     0.08   681.79     0  04:05        0.08
  C13-012              JUNCTION     0.07     0.13   670.88     0  04:15        0.13
  C13-013              JUNCTION     0.09     0.15   674.15     0  04:13        0.15
  C13-013A             JUNCTION     0.06     0.10   673.94     0  04:15        0.10
  C13-015              JUNCTION     0.04     0.06   681.03     0  04:08        0.06
  C13-016              JUNCTION     0.03     0.06   681.33     0  04:04        0.06
  C13-017              JUNCTION     0.05     0.07   681.25     0  04:05        0.07
  C13-019              JUNCTION     0.03     0.06   676.14     0  04:11        0.06
  C13-021              JUNCTION     0.04     0.07   678.96     0  04:10        0.07
  C13-022              JUNCTION     0.03     0.05   679.72     0  04:05        0.05
  C13-023B             JUNCTION     0.02     0.04   680.20     0  04:05        0.04
  C13-025              JUNCTION     0.68     1.23   674.62     0  04:20        1.23
  C13-025A             JUNCTION     0.02     0.04   678.10     0  04:10        0.04
  C13-025B             JUNCTION     0.44     0.81   674.16     0  04:21        0.81
  C13-025F             JUNCTION     0.01     0.03   695.51     0  04:05        0.03
  C13-027              JUNCTION     0.03     0.06   679.93     0  04:10        0.06
  C13-028              JUNCTION     0.07     0.12   679.99     0  04:06        0.12
  C13-029              JUNCTION     0.05     0.09   680.08     0  04:05        0.09
  C13-030              JUNCTION     0.44     0.82   674.91     0  04:20        0.82
  C13-031A             JUNCTION     0.41     0.78   674.97     0  04:21        0.78
  C13-033              JUNCTION     0.02     0.04   680.31     0  04:10        0.04
  C13-035A             JUNCTION     0.02     0.04   679.14     0  04:10        0.04
  C13-041A             JUNCTION     0.02     0.03   693.94     0  04:05        0.03
  C13-054              JUNCTION     0.24     0.46   676.13     0  04:35        0.46
  C16-012              JUNCTION     0.03     0.05   714.67     0  04:05        0.05
  C16-016              JUNCTION     0.03     0.04   729.90     0  15:00        0.04
  C17-076              JUNCTION     0.01     0.03   739.80     0  04:05        0.03
  JCT-10               JUNCTION     0.00     0.00   701.18     0  00:00        0.00
  JCT-14               JUNCTION     0.00     0.00   700.58     0  00:00        0.00
  JCT-26               JUNCTION     0.03     0.07   679.61     0  14:36        0.07
  JCT-28               JUNCTION     0.63     1.25   672.81     2  15:41        1.25
  JCT-32               JUNCTION     0.32     0.65   708.93     0  14:39        0.65
  JCT-42               JUNCTION     0.15     0.37   684.15     0  14:30        0.37
  JCT-52               JUNCTION     0.10     0.14   685.90     3  08:00        0.14
  JCT-54               JUNCTION     0.26     1.65   661.65     2  15:52        1.64
  JCT-56               JUNCTION     0.20     0.46   674.46     0  14:34        0.46
  JCT-62               JUNCTION     0.01     0.01   682.01     0  13:00        0.01
  JCT-64               JUNCTION     0.11     0.24   708.32     0  14:31        0.24
  JCT-66               JUNCTION     0.09     0.20   701.40     0  14:32        0.20
  JCT-68               JUNCTION     0.28     0.54   695.10     0  14:35        0.54
  JCT-70               JUNCTION     0.09     0.19   694.75     0  14:36        0.19
  JCT-72               JUNCTION     0.83     1.00   682.57     0  14:56        1.00
  JCT-74               JUNCTION     0.83     1.00   682.57     0  14:56        1.00
  JCT-78               JUNCTION     1.04     2.02   705.31     0  14:49        2.02
  N02-002              JUNCTION     0.28     0.59   733.72     2  15:33        0.59
  N02-007              JUNCTION     0.11     0.24   738.03     0  14:34        0.24
  N02-009              JUNCTION     0.33     0.64   738.44     0  14:33        0.64
  N02-012              JUNCTION     0.34     0.65   738.44     0  14:32        0.65
  N02-013A             JUNCTION     0.02     0.03   738.89     1  13:00        0.03
  N02-013B             JUNCTION     0.03     0.13   738.44     0  14:33        0.13
  N02-014              JUNCTION     0.01     0.02   741.42     1  13:00        0.02
  N02-P017             JUNCTION     0.34     0.65   738.44     0  14:31        0.65
  N02-P020             JUNCTION     0.28     0.59   733.72     2  15:32        0.59
  N02-P021             JUNCTION     0.03     0.04   728.41     1  13:00        0.04
  N02-P024             JUNCTION     0.11     0.26   728.27     2  15:33        0.26
  N02-P025             JUNCTION     0.11     0.26   728.27     2  15:34        0.26
  N02-P034             JUNCTION     0.12     0.22   738.04     0  14:34        0.22
  N02-P039             JUNCTION     0.00     0.01   744.52     1  12:59        0.01
  N03-002              JUNCTION     0.16     0.32   738.30     0  14:36        0.32
  N03-005              JUNCTION     0.41     0.76   738.74     0  14:35        0.76
  N03-006              JUNCTION     0.01     0.02   739.42     0  13:00        0.02
  N03-017              JUNCTION     0.17     0.36   743.23     0  14:33        0.36
  N03-021              JUNCTION     0.15     0.31   749.42     0  14:32        0.31
  N03-025              JUNCTION     0.16     0.34   754.09     0  14:31        0.34
  N03-026              JUNCTION     0.28     0.63   754.75     0  14:31        0.63
  N03-029              JUNCTION     0.05     0.07   755.12     0  13:00        0.07
  N03-031              JUNCTION     0.05     0.07   755.16     0  13:00        0.07
  N03-032              JUNCTION     0.03     0.05   756.43     0  13:00        0.05
  N03-033              JUNCTION     0.04     0.06   756.07     0  13:00        0.06
  N03-085              JUNCTION     0.04     0.06   749.44     0  13:00        0.06
  N03-P076             JUNCTION     0.07     0.11   756.49     0  13:00        0.11
  N03-P077             JUNCTION     0.04     0.06   756.56     1  13:00        0.06
  N03-P079             JUNCTION     0.39     0.84   754.96     0  14:30        0.84
  N03-P083             JUNCTION     0.02     0.03   751.61     0  13:00        0.03
  N03-P084             JUNCTION     0.02     0.03   750.80     1  13:00        0.03
  N03-P086             JUNCTION     0.05     0.07   749.45     0  13:00        0.07
  N03-P088             JUNCTION     0.06     0.08   743.32     0  13:00        0.08
  N03-P089             JUNCTION     0.05     0.08   743.32     0  13:00        0.08
  N03-P094             JUNCTION     0.01     0.01   755.76     0  12:55        0.01
  N03-P101             JUNCTION     0.17     0.32   738.30     0  14:37        0.32
  N03-P102             JUNCTION     0.00     0.01   743.97     0  12:44        0.01
  N03-P106             JUNCTION     0.11     0.25   738.30     0  14:36        0.25
  N05-001A             JUNCTION     0.01     0.01   711.26     1  12:45        0.01
  N05-002              JUNCTION     0.20     0.42   713.01     0  14:37        0.42
  N05-003              JUNCTION     0.10     0.23   715.60     0  14:30        0.23
  N05-004              JUNCTION     0.10     0.26   718.03     0  14:30        0.26
  N05-009              JUNCTION     0.02     0.03   724.23     1  08:00        0.03
  N05-010              JUNCTION     0.02     0.03   725.49     2  07:48        0.03
  N05-011              JUNCTION     0.02     0.03   724.97     2  07:53        0.03
  N05-013              JUNCTION     0.45     0.94   713.78     0  14:39        0.94
  N05-013A             JUNCTION     0.54     1.02   713.64     0  14:39        1.02
  N05-014              JUNCTION     0.02     0.03   714.37     0  08:00        0.03
  N05-014A             JUNCTION     0.02     0.02   714.15     1  08:00        0.02
  N05-015              JUNCTION     0.28     0.56   714.78     0  14:38        0.56
  N05-016              JUNCTION     0.02     0.02   715.74     0  07:56        0.02
  N05-019              JUNCTION     0.25     0.50   716.23     0  14:37        0.50
  N05-021              JUNCTION     0.01     0.02   722.15     1  08:00        0.02
  N05-022              JUNCTION     0.28     0.58   716.86     0  14:36        0.58
  N05-023              JUNCTION     0.01     0.02   717.81     1  07:52        0.02
  N05-025              JUNCTION     0.19     0.39   719.47     0  14:35        0.39
  N05-026              JUNCTION     0.02     0.02   720.62     1  07:53        0.02
  N05-030              JUNCTION     0.39     0.80   722.73     0  14:33        0.80
  N05-030A             JUNCTION     0.20     0.41   722.08     0  14:34        0.41
  N05-030B             JUNCTION     0.02     0.02   724.74     1  07:54        0.02
  N05-031              JUNCTION     0.02     0.02   723.45     0  07:57        0.02
  N05-034              JUNCTION     0.16     0.34   726.52     0  14:32        0.34
  N05-036              JUNCTION     0.09     0.23   737.48     0  14:30        0.23
  N05-037              JUNCTION     0.19     0.39   728.20     2  15:29        0.39
  N05-037A             JUNCTION     0.11     0.25   712.17     0  14:31        0.25
  N05-039              JUNCTION     0.02     0.03   729.34     1  08:00        0.03
  N05-040              JUNCTION     0.19     0.40   730.85     2  15:26        0.40
  N05-042A             JUNCTION     0.01     0.01   724.98     1  13:00        0.01
  N05-044A             JUNCTION     0.03     0.05   719.76     0  13:00        0.05
  N05-045A             JUNCTION     0.01     0.02   727.55     1  13:00        0.02
  N05-046              JUNCTION     0.19     0.39   732.36     2  15:25        0.39
  N05-047              JUNCTION     0.20     0.39   732.36     2  15:25        0.39
  N05-047A             JUNCTION     0.03     0.04   726.14     1  13:00        0.04
  N05-051B             JUNCTION     0.11     0.25   718.03     0  14:30        0.25
  N05-063              JUNCTION     0.00     0.01   739.78     0  12:51        0.01
  N05-P056             JUNCTION     0.02     0.03   721.81     0  12:37        0.03
  N05-P057             JUNCTION     0.00     0.01   727.61     0  13:00        0.01
  N05-P062             JUNCTION     0.01     0.02   727.06     1  12:59        0.02
  N06-004              JUNCTION     0.20     0.40   726.91     2  15:31        0.40
  N06-005              JUNCTION     0.21     0.40   726.91     2  15:31        0.40
  N06-006A             JUNCTION     0.30     0.61   729.21     2  15:31        0.61
  N06-009              JUNCTION     0.29     0.57   731.44     2  15:29        0.57
  N06-010              JUNCTION     0.53     0.99   731.86     2  15:28        0.99
  N06-011              JUNCTION     0.53     0.99   731.86     2  15:27        0.99
  N06-016              JUNCTION     0.02     0.03   748.40     3  08:00        0.03
  N06-017              JUNCTION     0.02     0.02   750.16     3  07:54        0.02
  N06-018              JUNCTION     0.06     0.08   748.61     3  08:00        0.08
  N06-020              JUNCTION     0.28     0.57   729.21     2  15:32        0.57
  N06-020A             JUNCTION     0.26     0.55   742.83     0  14:32        0.55
  N06-021              JUNCTION     0.33     0.62   729.21     2  15:30        0.62
  N06-021A             JUNCTION     0.12     0.29   749.33     0  14:30        0.29
  N06-022              JUNCTION     0.34     0.63   729.21     2  15:32        0.63
  N06-022B             JUNCTION     0.02     0.03   751.09     1  08:00        0.03
  N06-024B             JUNCTION     0.02     0.02   752.78     1  08:00        0.02
  N06-034              JUNCTION     0.01     0.02   743.59     1  07:23        0.02
  N06-035              JUNCTION     0.01     0.02   744.59     3  07:08        0.02
  N06-036A             JUNCTION     0.18     0.36   733.22     0  14:37        0.36
  N06-042              JUNCTION     0.31     0.56   753.39     0  14:32        0.56
  N06-043              JUNCTION     0.31     0.56   753.39     0  14:35        0.56
  N06-044              JUNCTION     0.31     0.56   753.39     0  14:34        0.56
  N06-045              JUNCTION     0.13     0.26   753.09     0  14:34        0.26
  N06-048              JUNCTION     0.35     0.62   753.47     0  14:30        0.62
  N06-052              JUNCTION     0.35     0.59   753.42     0  14:32        0.59
  N06-056              JUNCTION     0.09     0.12   753.50     0  07:59        0.12
  N06-057              JUNCTION     0.14     0.26   753.09     0  14:35        0.26
  N06-060              JUNCTION     0.03     0.04   753.64     0  13:00        0.04
  N06-061              JUNCTION     0.31     0.56   753.39     0  14:36        0.56
  N06-P038             JUNCTION     0.01     0.02   737.67     0  12:53        0.02
  N06-P039             JUNCTION     0.03     0.05   754.96     1  12:31        0.05
  N06-P047             JUNCTION     0.31     0.56   753.39     0  14:35        0.56
  N07-001              JUNCTION     0.24     0.51   752.85     0  14:38        0.51
  N07-005              JUNCTION     0.23     0.48   756.89     0  14:37        0.48
  N07-007              JUNCTION     0.05     0.07   757.92     0  13:00        0.07
  N07-007B             JUNCTION     0.04     0.07   758.81     0  13:00        0.07
  N07-008              JUNCTION     0.05     0.07   758.81     0  13:00        0.07
  N07-008B             JUNCTION     0.03     0.04   758.21     1  13:00        0.04
  N07-009              JUNCTION     0.33     0.72   757.97     0  14:36        0.72
  N07-010              JUNCTION     0.28     0.64   758.27     0  14:40        0.64
  N07-010D             JUNCTION     0.01     0.02   762.51     0  13:00        0.02
  N07-010F             JUNCTION     0.04     0.05   762.55     3  13:00        0.05
  N07-011              JUNCTION     0.24     0.55   758.92     0  14:38        0.55
  N07-014A             JUNCTION     0.01     0.01   766.59     0  12:59        0.01
  N07-017              JUNCTION     0.32     0.71   759.24     0  14:35        0.71
  N07-019              JUNCTION     0.42     0.93   759.47     0  14:33        0.93
  N07-023              JUNCTION     0.02     0.03   753.84     0  13:00        0.03
  N07-024B             JUNCTION     0.01     0.01   755.10     1  12:30        0.01
  N07-024C             JUNCTION     0.01     0.01   756.69     1  12:09        0.01
  N07-026              JUNCTION     0.02     0.03   753.05     0  13:00        0.03
  N07-033              JUNCTION     0.02     0.03   769.86     0  13:00        0.03
  N07-034              JUNCTION     0.01     0.01   773.38     1  13:00        0.01
  N07-039              JUNCTION     0.27     0.56   751.12     0  14:41        0.56
  N07-040              JUNCTION     0.24     0.47   747.81     0  14:42        0.47
  N07-043              JUNCTION     0.33     0.66   749.82     0  14:41        0.66
  N07-055              JUNCTION     0.33     0.68   748.64     0  14:41        0.68
  N07-055A             JUNCTION     0.39     0.79   749.27     0  14:41        0.79
  N07-056              JUNCTION     0.33     0.66   749.82     0  14:40        0.66
  N07-057              JUNCTION     0.28     0.56   751.12     0  14:38        0.56
  N07-074              JUNCTION     0.03     0.11   759.59     0  14:33        0.11
  N07-075              JUNCTION     0.48     1.06   759.59     0  14:34        1.06
  N07-077              JUNCTION     0.47     1.05   759.58     0  14:32        1.05
  N07-079              JUNCTION     0.46     1.00   759.53     0  14:33        1.00
  N07-080              JUNCTION     0.40     0.87   759.41     0  14:37        0.87
  N07-084              JUNCTION     0.34     0.72   757.97     0  14:35        0.72
  N07-086              JUNCTION     0.01     0.02   760.71     1  13:00        0.02
  N07-095              JUNCTION     0.48     1.06   759.59     0  14:34        1.06
  N07-101              JUNCTION     0.47     1.05   759.58     0  14:32        1.05
  N07-103              JUNCTION     0.17     0.62   759.59     0  14:34        0.62
  N07-P007D            JUNCTION     0.10     0.15   758.89     1  12:09        0.15
  N07-P071             JUNCTION     0.01     0.02   760.29     1  13:00        0.02
  N07-P082             JUNCTION     0.05     0.07   769.91     3  13:00        0.07
  N07-P093             JUNCTION     0.03     0.05   759.63     3  11:10        0.05
  N07-P098             JUNCTION     0.47     1.05   759.58     0  14:31        1.04
  N07-P104             JUNCTION     0.02     0.03   759.72     1  12:59        0.03
  N08-002              JUNCTION     0.19     0.42   672.82     0  14:32        0.42
  N08-006              JUNCTION     0.01     0.02   683.48     1  08:00        0.02
  N08-010              JUNCTION     0.04     0.05   681.36     1  08:02        0.05
  N08-011              JUNCTION     0.02     0.03   683.45     2  07:39        0.03
  N08-013              JUNCTION     0.01     0.02   683.44     1  07:50        0.02
  N08-015              JUNCTION     0.07     0.10   681.60     3  08:00        0.10
  N08-017              JUNCTION     0.06     0.08   681.80     3  08:00        0.08
  N08-020              JUNCTION     0.02     0.03   683.47     3  08:00        0.03
  N08-023B             JUNCTION     0.02     0.03   683.46     2  08:00        0.03
  N08-024              JUNCTION     0.04     0.05   682.59     3  08:00        0.05
  N08-029              JUNCTION     0.02     0.03   683.47     3  07:59        0.03
  N08-036              JUNCTION     0.14     0.31   673.51     0  14:31        0.31
  N08-036A             JUNCTION     0.06     0.14   678.14     0  14:30        0.14
  N08-037              JUNCTION     0.04     0.06   683.48     1  08:04        0.06
  N08-038              JUNCTION     0.11     0.14   683.56     3  08:00        0.14
  N08-039              JUNCTION     0.10     0.14   683.57     3  08:00        0.14
  N08-045              JUNCTION     0.10     0.14   683.57     3  08:00        0.14
  N08-046              JUNCTION     0.09     0.12   683.55     3  08:00        0.12
  N08-049              JUNCTION     0.07     0.10   683.55     3  08:00        0.10
  N08-049A             JUNCTION     0.11     0.14   683.55     3  08:00        0.14
  N08-058              JUNCTION     0.11     0.15   683.58     3  08:00        0.15
  N08-062              JUNCTION     0.04     0.06   685.03     1  08:00        0.06
  N08-063              JUNCTION     0.02     0.03   685.62     3  08:00        0.03
  N08-064              JUNCTION     0.02     0.02   686.95     3  08:00        0.02
  N08-065              JUNCTION     0.02     0.02   686.35     3  08:00        0.02
  N08-073B             JUNCTION     0.03     0.05   687.07     3  08:00        0.05
  N08-075              JUNCTION     0.04     0.06   687.75     3  08:00        0.06
  N08-080              JUNCTION     0.02     0.02   692.79     1  07:39        0.02
  N08-084              JUNCTION     0.01     0.02   691.59     2  07:48        0.02
  N08-085              JUNCTION     0.01     0.02   692.28     1  07:48        0.02
  N08-091              JUNCTION     0.02     0.03   688.76     1  08:00        0.03
  N08-092              JUNCTION     0.07     0.09   688.81     1  08:00        0.09
  N08-093              JUNCTION     0.07     0.15   683.57     0  14:30        0.15
  N09-001              JUNCTION     0.08     0.18   704.98     0  14:36        0.18
  N09-002              JUNCTION     0.15     0.36   705.86     0  14:35        0.36
  N09-005              JUNCTION     0.01     0.02   712.90     0  07:57        0.02
  N09-006              JUNCTION     0.27     0.56   706.06     0  14:34        0.56
  N09-006A             JUNCTION     0.15     0.36   705.86     0  14:35        0.36
  N09-009              JUNCTION     0.01     0.02   711.82     1  08:00        0.02
  N09-010A             JUNCTION     0.30     0.64   706.14     0  14:33        0.63
  N09-011              JUNCTION     0.02     0.03   706.40     1  08:00        0.03
  N09-012              JUNCTION     0.35     0.73   706.23     0  14:31        0.73
  N09-012A             JUNCTION     0.35     0.76   706.27     0  14:30        0.76
  N09-013              JUNCTION     0.34     0.73   706.23     0  14:31        0.72
  N09-014              JUNCTION     0.01     0.02   698.85     3  07:39        0.02
  N09-015              JUNCTION     0.02     0.03   695.86     3  07:36        0.03
  N09-018              JUNCTION     0.07     0.10   695.93     3  07:25        0.10
  N09-021              JUNCTION     0.09     0.17   683.67     0  14:32        0.17
  N09-026              JUNCTION     0.21     0.44   672.64     0  14:33        0.44
  N09-031              JUNCTION     0.17     0.35   671.81     0  14:31        0.35
  N09-034              JUNCTION     0.02     0.03   679.79     1  08:00        0.03
  N09-035              JUNCTION     0.07     0.09   679.85     3  08:00        0.09
  N09-040              JUNCTION     0.01     0.02   685.24     3  07:57        0.02
  N09-050              JUNCTION     0.02     0.02   690.94     1  08:00        0.02
  N09-051              JUNCTION     0.18     0.30   686.22     0  14:32        0.30
  N09-053              JUNCTION     0.14     0.30   686.22     0  14:31        0.30
  N09-058              JUNCTION     0.01     0.02   696.72     2  07:52        0.02
  N09-061              JUNCTION     0.06     0.08   687.29     2  08:27        0.08
  N09-062              JUNCTION     0.08     0.19   698.66     0  14:30        0.19
  N09-063              JUNCTION     0.24     0.55   699.02     0  14:30        0.55
  N09-066              JUNCTION     0.03     0.04   705.92     1  08:00        0.04
  N09-067              JUNCTION     0.02     0.03   706.70     3  08:00        0.03
  N09-071              JUNCTION     0.03     0.04   708.56     1  08:00        0.04
  N09-073              JUNCTION     0.07     0.09   708.61     1  08:00        0.09
  N09-081              JUNCTION     0.05     0.07   689.77     2  08:20        0.07
  N09-082              JUNCTION     0.02     0.03   700.04     3  07:48        0.03
  N09-088              JUNCTION     0.02     0.04   694.74     1  08:00        0.04
  N09-090              JUNCTION     0.05     0.07   694.79     1  08:00        0.07
  N09-091              JUNCTION     0.12     0.15   689.85     3  08:13        0.15
  N09-092              JUNCTION     0.08     0.11   704.67     1  08:00        0.11
  N09-093              JUNCTION     0.03     0.03   704.60     2  08:12        0.03
  N09-097              JUNCTION     0.01     0.02   711.54     3  08:00        0.02
  N09-103              JUNCTION     0.00     0.01   718.27     0  12:49        0.01
  N09-104              JUNCTION     0.22     0.41   718.53     0  14:33        0.40
  N09-105              JUNCTION     0.22     0.41   718.53     0  14:34        0.41
  N09-106              JUNCTION     0.21     0.40   718.53     0  14:32        0.40
  N10-006A             JUNCTION     0.01     0.02   701.61     0  13:00        0.02
  N10-007              JUNCTION     0.03     0.04   701.32     1  08:00        0.04
  N10-012              JUNCTION     0.33     0.69   698.61     0  14:35        0.69
  N10-013              JUNCTION     0.07     0.30   698.61     0  14:36        0.29
  N10-014              JUNCTION     0.63     1.15   699.07     0  14:33        1.15
  N10-015              JUNCTION     0.27     0.54   702.68     0  14:31        0.54
  N10-016              JUNCTION     0.02     0.03   704.61     1  08:00        0.03
  N10-017              JUNCTION     0.29     0.57   703.29     0  14:38        0.57
  N10-018              JUNCTION     0.39     0.74   703.49     0  14:36        0.74
  N10-019              JUNCTION     0.39     0.74   703.49     0  14:36        0.74
  N10-021              JUNCTION     0.02     0.03   705.11     1  08:00        0.03
  N10-022              JUNCTION     0.01     0.02   697.91     1  08:00        0.02
  N10-023              JUNCTION     0.25     0.50   696.70     0  14:36        0.50
  N10-026              JUNCTION     0.01     0.02   703.00     1  08:00        0.02
  N10-027              JUNCTION     0.66     1.31   693.37     2  15:39        1.31
  N10-036              JUNCTION     0.43     0.84   699.61     2  15:41        0.84
  N10-040              JUNCTION     0.09     0.21   709.31     0  14:30        0.21
  N10-041              JUNCTION     0.02     0.03   710.62     0  07:50        0.03
  N10-043              JUNCTION     0.20     0.52   710.11     0  14:30        0.52
  N10-044A             JUNCTION     0.21     0.52   710.11     0  14:31        0.52
  N10-045              JUNCTION     0.42     0.82   703.62     0  14:51        0.82
  N10-046              JUNCTION     0.03     0.04   703.94     3  08:00        0.04
  N10-047              JUNCTION     0.05     0.06   704.06     3  08:00        0.06
  N10-050              JUNCTION     0.01     0.02   707.41     0  07:50        0.02
  N10-051              JUNCTION     0.86     1.69   704.71     0  14:50        1.69
  N10-052              JUNCTION     0.01     0.02   704.89     0  08:00        0.02
  N10-054              JUNCTION     0.02     0.03   704.68     3  08:00        0.03
  N10-055              JUNCTION     0.89     1.76   704.95     0  14:49        1.76
  N10-057              JUNCTION     0.02     0.02   706.52     0  08:00        0.02
  N10-058              JUNCTION     0.12     0.28   701.17     0  14:34        0.28
  N10-P060             JUNCTION     0.01     0.01   702.24     1  13:00        0.01
  N11-003A             JUNCTION     0.28     0.57   712.55     0  14:38        0.57
  N11-004              JUNCTION     0.35     0.76   714.07     0  14:38        0.75
  N11-005              JUNCTION     0.38     0.77   715.40     0  14:38        0.77
  N11-006              JUNCTION     0.02     0.03   719.21     1  08:00        0.03
  N11-008              JUNCTION     0.34     0.69   717.51     0  14:37        0.69
  N11-009              JUNCTION     0.24     0.48   719.26     0  14:38        0.48
  N11-009A             JUNCTION     0.14     0.35   720.13     0  14:30        0.35
  N11-009B             JUNCTION     0.17     0.33   725.87     0  14:40        0.33
  N11-010              JUNCTION     0.20     0.45   718.66     0  14:33        0.44
  N11-012              JUNCTION     0.02     0.02   722.84     1  07:48        0.02
  N11-013              JUNCTION     0.14     0.33   720.35     0  14:32        0.33
  N11-014              JUNCTION     0.01     0.02   726.30     1  07:58        0.02
  N11-015              JUNCTION     0.25     0.59   721.21     0  14:31        0.58
  N11-016              JUNCTION     0.01     0.02   725.07     1  07:47        0.02
  N11-017              JUNCTION     0.17     0.42   721.94     0  14:30        0.42
  N11-018              JUNCTION     0.02     0.03   723.75     1  07:59        0.03
  N11-020              JUNCTION     0.02     0.03   724.43     1  08:00        0.03
  N11-022              JUNCTION     0.02     0.02   726.63     3  08:00        0.02
  N11-024              JUNCTION     0.02     0.04   716.12     1  08:00        0.04
  N11-026              JUNCTION     0.01     0.02   724.79     2  07:47        0.02
  N11-028              JUNCTION     0.01     0.02   722.67     1  08:00        0.02
  N11-P031             JUNCTION     0.02     0.04   714.31     0  12:33        0.04
  N11-P032             JUNCTION     0.11     0.28   717.20     0  14:30        0.28
  N11-P033             JUNCTION     0.02     0.03   712.57     0  12:52        0.03
  N12-001              JUNCTION     0.28     0.56   728.36     0  14:40        0.56
  N12-002A             JUNCTION     0.10     0.21   734.76     0  14:32        0.21
  N12-006              JUNCTION     0.50     0.90   728.79     0  14:40        0.90
  N12-010              JUNCTION     0.04     0.06   729.85     1  08:00        0.06
  N12-013              JUNCTION     0.02     0.02   733.29     3  08:00        0.02
  N12-020              JUNCTION     0.02     0.04   739.31     3  08:00        0.04
  N12-021              JUNCTION     0.02     0.02   741.44     2  07:54        0.02
  N12-023              JUNCTION     0.01     0.02   745.36     2  07:59        0.02
  N12-026              JUNCTION     0.13     0.33   746.31     2  15:32        0.33
  N12-030              JUNCTION     0.02     0.03   746.79     1  08:00        0.03
  N12-031              JUNCTION     0.02     0.02   748.01     1  08:00        0.02
  N12-033              JUNCTION     0.12     0.29   744.58     0  14:30        0.29
  N12-035              JUNCTION     0.02     0.03   745.74     1  08:00        0.03
  N12-036              JUNCTION     0.10     0.22   742.71     0  14:31        0.21
  N12-045              JUNCTION     0.10     0.21   734.76     0  14:36        0.21
  N12-046              JUNCTION     0.03     0.05   733.10     3  08:00        0.05
  N12-047              JUNCTION     0.04     0.05   732.73     1  08:00        0.05
  N12-055              JUNCTION     0.02     0.03   743.85     1  08:00        0.03
  N12-059              JUNCTION     0.01     0.01   735.53     0  13:00        0.01
  N12-P057             JUNCTION     0.02     0.03   733.75     3  08:00        0.03
  N13-002              JUNCTION     0.17     0.36   670.54     0  14:33        0.36
  N13-004              JUNCTION     0.10     0.22   682.70     0  14:30        0.22
  N13-005              JUNCTION     0.02     0.02   684.10     1  07:47        0.02
  N13-006              JUNCTION     0.06     0.13   682.70     0  14:31        0.13
  N13-007              JUNCTION     0.39     0.73   670.94     0  14:33        0.73
  N13-009              JUNCTION     0.01     0.02   679.72     1  08:00        0.02
  N13-010              JUNCTION     0.30     0.64   671.05     0  14:31        0.64
  N13-017A             JUNCTION     0.03     0.04   684.35     0  08:00        0.04
  N13-019              JUNCTION     0.11     0.14   684.46     3  08:00        0.14
  N13-022              JUNCTION     0.11     0.14   684.46     3  08:00        0.14
  N13-023              JUNCTION     0.13     0.16   684.46     3  08:00        0.16
  N14-001              JUNCTION     0.74     1.48   692.22     2  15:40        1.48
  N14-004              JUNCTION     0.01     0.02   695.29     0  12:41        0.02
  N14-005              JUNCTION     0.04     0.06   693.46     0  13:00        0.06
  N14-006B             JUNCTION     0.04     0.05   697.42     0  12:50        0.05
  N14-007              JUNCTION     0.04     0.06   698.27     0  12:35        0.06
  N14-007A             JUNCTION     0.02     0.03   699.31     3  12:53        0.03
  N14-008A             JUNCTION     0.01     0.02   696.97     3  08:00        0.02
  N14-009              JUNCTION     0.09     0.12   691.88     0  13:00        0.12
  N14-010              JUNCTION     0.08     0.11   691.78     0  13:00        0.11
  N14-011              JUNCTION     0.07     0.09   691.30     0  13:00        0.09
  N14-012              JUNCTION     0.05     0.07   689.84     1  09:00        0.07
  N14-013              JUNCTION     0.17     0.35   688.03     0  14:32        0.35
  N14-015              JUNCTION     0.50     0.98   688.68     0  14:31        0.98
  N14-016              JUNCTION     0.04     0.06   688.68     0  14:32        0.06
  N14-018              JUNCTION     0.02     0.03   689.69     3  08:00        0.03
  N14-020              JUNCTION     0.02     0.02   696.69     3  08:00        0.02
  N14-023              JUNCTION     0.01     0.02   703.90     3  07:54        0.02
  N14-026              JUNCTION     0.24     0.50   683.36     0  14:33        0.50
  N14-027              JUNCTION     0.17     0.34   681.75     0  14:34        0.34
  N14-030              JUNCTION     0.19     0.38   678.98     0  14:36        0.38
  N14-031              JUNCTION     0.01     0.02   681.62     1  07:56        0.02
  N14-032              JUNCTION     0.13     0.26   677.40     0  14:35        0.26
  N14-034              JUNCTION     0.02     0.03   680.16     0  07:58        0.03
  N14-035              JUNCTION     0.02     0.03   707.15     3  07:30        0.03
  N14-036              JUNCTION     0.06     0.08   707.20     1  08:00        0.08
  N14-037              JUNCTION     0.03     0.04   707.56     3  07:14        0.04
  N14-077              JUNCTION     0.01     0.02   700.60     0  07:50        0.02
  N14-P040             JUNCTION     0.03     0.04   698.78     2  12:31        0.04
  N14-P051             JUNCTION     0.00     0.00   700.58     0  00:00        0.00
  N14-P061             JUNCTION     0.03     0.04   692.99     2  12:30        0.04
  N14-P062             JUNCTION     0.08     0.11   696.26     3  12:17        0.11
  N14-P063             JUNCTION     0.02     0.03   696.18     2  12:28        0.03
  N14-P064             JUNCTION     0.03     0.05   696.42     3  12:08        0.05
  N14-P066             JUNCTION     0.02     0.04   695.91     3  12:11        0.04
  N14-P067             JUNCTION     0.01     0.02   697.72     1  13:00        0.02
  N14-P070             JUNCTION     0.02     0.02   691.71     0  13:00        0.02
  N14-P072             JUNCTION     0.10     0.25   683.49     0  14:30        0.25
  N14-P074             JUNCTION     0.15     0.37   684.15     0  14:30        0.37
  N17-001              JUNCTION     0.08     0.20   675.22     0  14:31        0.20
  N17-003              JUNCTION     0.16     0.40   677.10     0  14:30        0.40
  N17-003A             JUNCTION     0.01     0.02   677.12     0  13:00        0.02
  N17-008              JUNCTION     0.02     0.03   682.96     3  07:31        0.03
  N17-010              JUNCTION     0.02     0.03   684.48     3  07:12        0.03
  N17-016              JUNCTION     0.01     0.02   675.05     1  08:00        0.02
  N17-017              JUNCTION     0.02     0.03   675.73     3  08:00        0.03
  N17-018              JUNCTION     0.07     0.09   676.16     3  08:00        0.09
  N17-023              JUNCTION     0.02     0.03   676.98     3  08:00        0.03
  N17-027              JUNCTION     0.02     0.04   675.06     1  08:00        0.04
  N17-029              JUNCTION     0.08     0.10   675.13     3  08:00        0.10
  N17-030              JUNCTION     0.03     0.04   675.51     3  07:12        0.04
  N17-P011             JUNCTION     0.08     0.16   675.19     0  14:31        0.16
  N17-P012             JUNCTION     0.17     0.24   675.26     1  08:00        0.24
  N17-P015             JUNCTION     0.30     0.61   675.64     0  14:30        0.61
  N17-P086             JUNCTION     0.02     0.03   676.58     3  07:53        0.03
  N17-P091             JUNCTION     0.01     0.01   675.03     0  13:00        0.01
  N18-001              JUNCTION     0.18     0.31   668.31     0  14:35        0.31
  N18-002              JUNCTION     0.15     0.28   675.85     0  14:34        0.28
  N18-002A             JUNCTION     0.24     0.46   678.35     0  14:33        0.46
  N18-003              JUNCTION     0.18     0.34   683.89     0  14:30        0.34
  N18-003B             JUNCTION     0.23     0.42   680.28     0  14:32        0.42
  N18-004              JUNCTION     0.02     0.03   690.41     3  12:40        0.03
  N18-004C             JUNCTION     0.08     0.19   687.66     0  14:05        0.19
  N18-007              JUNCTION     0.05     0.07   676.84     0  08:00        0.07
  N18-014              JUNCTION     0.06     0.09   682.35     3  08:00        0.09
  N18-015              JUNCTION     0.07     0.10   682.37     1  08:00        0.10
  N18-016              JUNCTION     0.11     0.15   682.90     1  08:00        0.15
  N18-018              JUNCTION     0.03     0.04   689.00     0  07:36        0.04
  N18-019              JUNCTION     0.07     0.09   689.05     0  07:19        0.09
  N18-023              JUNCTION     0.07     0.10   677.08     0  08:00        0.10
  N18-027              JUNCTION     0.01     0.02   679.75     3  07:57        0.02
  N18-031              JUNCTION     0.16     0.21   682.96     1  07:58        0.21
  N18-033              JUNCTION     0.02     0.03   678.66     3  08:00        0.03
  N18-034              JUNCTION     0.09     0.12   677.09     0  08:00        0.12
  N18-034A             JUNCTION     0.17     0.31   664.31     2  15:26        0.31
  N18-034C             JUNCTION     0.15     0.27   668.27     0  14:31        0.27
  N18-034D             JUNCTION     0.28     0.49   663.49     2  15:29        0.49
  N18-034E             JUNCTION     0.11     0.21   682.12     0  14:30        0.21
  N18-036              JUNCTION     0.09     0.12   677.09     0  08:00        0.12
  N18-036B             JUNCTION     0.04     0.06   686.01     2  07:35        0.06
  N18-037A             JUNCTION     0.16     0.21   682.96     1  08:01        0.21
  N18-038              JUNCTION     0.02     0.03   690.05     3  08:00        0.03
  N18-050              JUNCTION     0.05     0.07   684.12     1  08:21        0.07
  N18-052              JUNCTION     0.03     0.05   685.31     1  13:00        0.05
  N18-054              JUNCTION     0.13     0.17   684.22     0  08:00        0.17
  N18-055              JUNCTION     0.15     0.19   684.23     0  08:00        0.19
  N18-058              JUNCTION     0.13     0.18   684.23     0  08:00        0.18
  N18-059              JUNCTION     0.13     0.18   684.23     0  08:00        0.18
  N18-060              JUNCTION     0.15     0.20   684.23     0  08:00        0.20
  N18-P038             JUNCTION     0.03     0.04   681.25     1  08:00        0.04
  N18-P041A            JUNCTION     0.23     0.42   680.28     0  14:33        0.42
  N18-P042             JUNCTION     0.08     0.13   682.78     0  07:18        0.13
  N18-P043             JUNCTION     0.08     0.13   682.78     0  07:14        0.13
  N18-P062             JUNCTION     0.01     0.02   687.66     1  13:00        0.02
  N18-P067             JUNCTION     0.26     0.35   683.89     0  19:04        0.35
  N18-P068             JUNCTION     0.07     0.09   684.85     3  07:30        0.09
  N18-P076             JUNCTION     0.09     0.22   691.50     0  14:02        0.22
  N18-P079             JUNCTION     0.16     0.36   692.02     0  14:01        0.36
  N18-P080             JUNCTION     0.08     0.11   690.50     3  12:22        0.11
  N18-P087             JUNCTION     0.01     0.01   692.91     1  12:57        0.01
  N18-P089             JUNCTION     0.01     0.01   688.49     1  13:00        0.01
  N18-P095             JUNCTION     0.02     0.04   691.79     0  13:00        0.04
  N18-P097             JUNCTION     0.02     0.03   686.47     1  12:49        0.03
  N18-P098             JUNCTION     0.08     0.12   683.31     3  07:05        0.12
  N18-P113             JUNCTION     0.23     0.42   680.29     0  14:34        0.42
  N19-001A             JUNCTION     0.31     0.63   701.53     0  14:33        0.63
  N19-002B             JUNCTION     0.01     0.02   707.69     2  08:00        0.02
  N19-003              JUNCTION     0.29     0.59   703.99     0  14:34        0.59
  N19-007              JUNCTION     0.01     0.02   710.47     1  07:54        0.02
  N19-009              JUNCTION     0.17     0.35   707.41     0  14:32        0.35
  N19-010              JUNCTION     0.04     0.11   707.41     0  14:33        0.11
  N19-012              JUNCTION     0.20     0.41   709.89     0  14:31        0.40
  N19-015              JUNCTION     0.02     0.03   710.82     1  08:00        0.03
  N19-018              JUNCTION     0.29     0.61   710.85     0  14:30        0.61
  N19-019              JUNCTION     0.29     0.61   710.85     0  14:31        0.61
  N19-021              JUNCTION     0.08     0.11   712.08     1  08:00        0.11
  N19-024              JUNCTION     0.04     0.05   719.85     3  08:00        0.05
  N19-024A             JUNCTION     0.09     0.12   719.92     1  07:32        0.12
  N19-026              JUNCTION     0.03     0.04   726.60     3  08:00        0.04
  N19-027              JUNCTION     0.08     0.10   726.66     1  08:00        0.10
  N19-027A             JUNCTION     0.01     0.02   729.81     3  08:00        0.02
  N19-028A             JUNCTION     0.08     0.10   726.66     3  08:03        0.10
  N19-030              JUNCTION     0.02     0.04   727.48     3  08:00        0.04
  N19-032              JUNCTION     0.15     0.20   712.17     3  08:00        0.20
  N19-034              JUNCTION     0.01     0.02   715.75     2  08:00        0.02
  N19-036              JUNCTION     0.06     0.08   712.93     3  08:00        0.08
  N19-040              JUNCTION     0.03     0.04   718.52     3  08:00        0.04
  N19-040A             JUNCTION     0.01     0.02   723.19     3  08:00        0.02
  N19-042              JUNCTION     0.02     0.03   722.77     3  07:50        0.03
  N19-043              JUNCTION     0.05     0.08   713.25     3  08:00        0.08
  N19-046              JUNCTION     0.01     0.02   721.65     3  07:59        0.02
  N19-047              JUNCTION     0.07     0.09   713.26     3  08:00        0.09
  N19-048              JUNCTION     0.30     0.95   704.95     0  14:51        0.95
  N19-051              JUNCTION     0.02     0.02   708.28     1  08:00        0.02
  N19-052              JUNCTION     0.16     0.46   704.96     0  14:53        0.45
  N19-053              JUNCTION     0.03     0.04   705.00     1  08:00        0.04
  N19-056B             JUNCTION     0.33     0.68   701.58     0  14:32        0.68
  N19-060              JUNCTION     0.01     0.01   720.75     3  07:51        0.01
  N19-063              JUNCTION     0.08     0.21   716.84     0  14:30        0.21
  N19-065              JUNCTION     0.01     0.02   721.62     1  07:50        0.02
  N20-006              JUNCTION     0.04     0.06   731.06     1  09:02        0.06
  N20-007B             JUNCTION     0.01     0.01   736.27     1  13:00        0.01
  N20-010              JUNCTION     0.05     0.06   734.98     2  09:01        0.06
  N20-011              JUNCTION     0.07     0.10   736.14     2  09:00        0.10
  N20-012              JUNCTION     0.08     0.10   736.14     2  09:00        0.10
  N20-014              JUNCTION     0.11     0.15   736.34     2  09:00        0.15
  N20-016              JUNCTION     0.04     0.05   741.28     2  09:00        0.05
  N20-019              JUNCTION     0.03     0.05   747.77     2  09:00        0.05
  N20-023              JUNCTION     0.10     0.13   748.01     2  09:00        0.13
  N20-025              JUNCTION     0.04     0.06   736.57     2  09:00        0.06
  N20-028A             JUNCTION     0.02     0.03   737.55     3  08:00        0.03
  N20-030              JUNCTION     0.02     0.03   741.80     1  13:00        0.03
  N20-032C             JUNCTION     0.01     0.02   746.87     1  12:25        0.02
  N20-034              JUNCTION     0.01     0.01   747.05     1  13:00        0.01
  N20-037              JUNCTION     0.01     0.02   752.78     0  12:54        0.02
  N20-038B             JUNCTION     0.01     0.02   753.21     2  12:51        0.02
  N20-039              JUNCTION     0.02     0.03   751.60     1  13:00        0.03
  N20-043              JUNCTION     0.11     0.14   748.02     2  09:00        0.14
  N20-044              JUNCTION     0.11     0.14   748.02     0  08:00        0.14
  N20-046              JUNCTION     0.03     0.05   728.99     3  13:00        0.05
  N20-P048             JUNCTION     0.02     0.03   747.91     0  12:09        0.03
  N20-P053             JUNCTION     0.01     0.02   752.01     1  13:00        0.02
  N20-P054             JUNCTION     0.02     0.04   729.45     1  13:00        0.04
  N20-P056             JUNCTION     0.02     0.03   730.61     1  12:40        0.03
[...]
  57181                   1.00   0.00  0.00  0.00  1.00  0.00  0.00  0.00  0.00  0.00
  57211                   4.39   0.00  0.00  0.00  1.00  0.00  0.00  0.00  1.00  0.00
  57266                   1.88   0.00  0.00  0.00  0.00  1.00  0.00  0.00  1.00  0.00
  57328                   1.00   0.05  0.07  0.00  0.87  0.00  0.00  0.00  0.94  0.00
  57330                   1.00   0.05  0.00  0.00  0.95  0.00  0.00  0.00  0.00  0.00
  57331                   1.01   0.05  0.00  0.00  0.95  0.00  0.00  0.00  0.00  0.00
  57333                   1.38   0.05  0.00  0.00  0.95  0.00  0.00  0.00  0.00  0.00
  57334                   1.05   0.05  0.00  0.00  0.95  0.00  0.00  0.00  0.00  0.00
  57335                   1.00   0.05  0.00  0.00  0.95  0.00  0.00  0.00  0.00  0.00
  57356                   1.66   0.00  0.00  0.00  0.00  1.00  0.00  0.00  0.00  0.00
  57391                   1.00   0.05  0.00  0.00  0.95  0.00  0.00  0.00  0.00  0.00
  57404                   1.02   0.05  0.04  0.00  0.91  0.00  0.00  0.00  0.28  0.00
  57408                   1.00   0.05  0.15  0.00  0.79  0.00  0.00  0.00  0.95  0.00
  57512                   2.02   0.00  0.20  0.00  0.80  0.00  0.00  0.00  0.95  0.00
  57520                   1.33   0.00  0.21  0.00  0.79  0.00  0.00  0.00  0.95  0.00
  57543                   1.40   0.00  0.22  0.00  0.78  0.00  0.00  0.00  0.95  0.00
  57640                   1.00   0.00  0.17  0.00  0.83  0.00  0.00  0.00  0.95  0.00
  57676                   1.00   0.05  0.00  0.00  0.95  0.00  0.00  0.00  0.00  0.00
  57677                   1.11   0.06  0.14  0.00  0.80  0.00  0.00  0.00  0.94  0.00
  57679                   1.01   0.05  0.00  0.00  0.95  0.00  0.00  0.00  0.89  0.00
  C02-035-C02-034         1.10   0.00  0.00  0.00  0.33  0.67  0.00  0.00  1.00  0.00
  C02-036-C02-035         1.28   0.00  0.00  0.00  1.00  0.00  0.00  0.00  1.00  0.00
  C02-042-C02-035         1.00   0.00  0.00  0.00  1.00  0.00  0.00  0.00  0.00  0.00
  C05-009-C05-008         1.68   0.00  0.00  0.00  0.39  0.61  0.00  0.00  1.00  0.00
  C05-013-C05-001         2.62   0.00  0.00  0.00  1.00  0.00  0.00  0.00  1.00  0.00
  C05-033B-C05-014        1.56   0.00  0.00  0.00  0.00  1.00  0.00  0.00  0.00  0.00
  C05-038A-C05-033        1.27   0.00  0.00  0.00  0.04  0.96  0.00  0.00  0.32  0.00
  C05-056-C05-038         1.00   0.00  0.00  0.00  1.00  0.00  0.00  0.00  1.00  0.00
  C05-058-C05-057         1.00   0.00  0.00  0.00  1.00  0.00  0.00  0.00  1.00  0.00
  C05-066-C05-058         1.00   0.00  0.00  0.00  0.00  1.00  0.00  0.00  0.00  0.00
  C05-067-C05-066         1.00   0.00  0.00  0.00  1.00  0.00  0.00  0.00  1.00  0.00
  C05-067-C05-067A        4.89   0.00  0.00  0.00  0.83  0.17  0.00  0.00  1.00  0.00
  C05-068-C05-067         1.29   0.00  0.00  0.00  0.00  1.00  0.00  0.00  0.00  0.00
  C05-068A-C05-068        1.76   0.00  0.00  0.00  1.00  0.00  0.00  0.00  0.00  0.00
  C06-005A-C06-005        2.26   0.00  0.00  0.00  0.00  1.00  0.00  0.00  0.38  0.00
  C06-010-C06-006         1.00   0.00  0.00  0.00  0.00  1.00  0.00  0.00  1.00  0.00
  C06-063A-T07-019        5.67   0.00  0.00  0.00  0.90  0.10  0.00  0.00  1.00  0.00
  C07-011-C13-054A        1.00   0.00  0.00  0.00  0.01  0.99  0.00  0.00  0.03  0.00
  C07-021C-C07-011        1.00   0.00  0.00  0.00  1.00  0.00  0.00  0.00  0.00  0.00
  C07-035A-C07-035B       1.97   0.00  0.00  0.00  1.00  0.00  0.00  0.00  1.00  0.00
  C07-041-C07-041A        1.00   0.00  0.00  0.00  0.01  0.99  0.00  0.00  1.00  0.00
  C07-048-C07-047         2.62   0.00  0.00  0.00  0.00  1.00  0.00  0.00  1.00  0.00
  C07-056-C07-056A        2.66   0.00  0.00  0.00  0.00  1.00  0.00  0.00  0.00  0.00
  C07-058-C07-056         1.93   0.00  0.00  0.00  0.01  0.99  0.00  0.00  0.01  0.00
  C07-062-C07-058         1.67   0.00  0.00  0.00  1.00  0.00  0.00  0.00  0.00  0.00
  C07-063-C07-062         1.00   0.00  0.00  0.00  1.00  0.00  0.00  0.00  0.00  0.00
  C07-066-C07-068         1.27   0.00  0.00  0.00  1.00  0.00  0.00  0.00  0.00  0.00
  C07-067D-C07-067C       1.00   0.00  0.00  0.00  1.00  0.00  0.00  0.00  1.00  0.00
  C07-068-C07-069         1.66   0.00  0.00  0.00  1.00  0.00  0.00  0.00  1.00  0.00
  C07-069-C07-071         1.00   0.00  0.00  0.00  1.00  0.00  0.00  0.00  0.67  0.00
  C10-001A-T07-017        4.03   0.00  0.00  0.00  0.00  1.00  0.00  0.00  0.45  0.00
  C10-002-C10-001         2.16   0.05  0.00  0.00  0.17  0.78  0.00  0.00  0.06  0.00
  C10-018-C10-017A        1.12   0.00  0.21  0.00  0.79  0.00  0.00  0.00  0.95  0.00
  C12-001-C12-001A        1.50   0.00  0.00  0.00  1.00  0.00  0.00  0.00  0.24  0.00
  C12-003A-T07-014        2.42   0.00  0.00  0.00  0.12  0.88  0.00  0.00  0.53  0.00
  C12-003B-C12-003A       2.23   0.00  0.00  0.00  0.00  1.00  0.00  0.00  0.00  0.00
  C12-005-C12-004         1.17   0.00  0.00  0.00  0.07  0.93  0.00  0.00  1.00  0.00
  C12-005A-C12-004A       1.30   0.00  0.00  0.00  1.00  0.00  0.00  0.00  1.00  0.00
  C12-008-C12-005         1.00   0.00  0.00  0.00  0.01  0.99  0.00  0.00  1.00  0.00
  C12-011-C12-008         1.00   0.00  0.00  0.00  0.01  0.99  0.00  0.00  0.01  0.00
  C13-012-C13-007         2.18   0.00  0.00  0.00  0.00  1.00  0.00  0.00  0.00  0.00
  C13-013-C13-013A        2.12   0.00  0.00  0.00  1.00  0.00  0.00  0.00  0.00  0.00
  C13-013A-C13-012        1.01   0.00  0.00  0.00  0.00  1.00  0.00  0.00  1.00  0.00
  C13-019A-C13-013        1.00   0.00  0.00  0.00  1.00  0.00  0.00  0.00  1.00  0.00
  C13-025-C13-019B        1.61   0.00  0.00  0.00  1.00  0.00  0.00  0.00  1.00  0.00
  C13-025-C13-025B        1.84   0.00  0.00  0.00  1.00  0.00  0.00  0.00  0.00  0.00
  C13-025B-C12-011        1.00   0.00  0.00  0.00  0.01  0.99  0.00  0.00  0.99  0.00
  C13-030-C13-025         1.88   0.00  0.00  0.00  1.00  0.00  0.00  0.00  1.00  0.00
  C13-031-C13-030         1.48   0.00  0.00  0.00  1.00  0.00  0.00  0.00  0.01  0.00
  C13-054-C13-032         1.00   0.00  0.00  0.00  1.00  0.00  0.00  0.00  1.00  0.00
  CDT-13                  1.71   0.00  0.00  0.00  0.04  0.96  0.00  0.00  1.00  0.00
  CDT-15                  5.03   0.00  0.00  0.00  1.00  0.00  0.00  0.00  1.00  0.00
  CDT-19                  1.44   1.00  0.00  0.00  0.00  0.00  0.00  0.00  0.00  0.00
  CDT-23                  1.00   0.00  0.00  0.00  1.00  0.00  0.00  0.00  1.00  0.00
  CDT-27                  1.00   0.00  0.01  0.00  0.99  0.00  0.00  0.00  0.99  0.00
  CDT-33                  1.00   0.00  0.00  0.00  1.00  0.00  0.00  0.00  0.10  0.00
  CDT-35                  1.00   0.00  0.00  0.00  0.96  0.04  0.00  0.00  0.98  0.00
  CDT-37                  1.00   0.00  0.00  0.00  1.00  0.00  0.00  0.00  0.00  0.00
  CDT-39                  1.00   0.00  0.00  0.00  0.00  1.00  0.00  0.00  0.00  0.00
  CDT-41                  1.00   0.00  0.20  0.00  0.80  0.00  0.00  0.00  0.95  0.00
  N02-002A-N02-001        1.00   0.05  0.00  0.00  0.01  0.94  0.00  0.00  0.00  0.00
  N02-004-N02-003         1.18   0.05  0.00  0.00  0.79  0.16  0.00  0.00  0.95  0.00
  N02-009-N02-008         1.00   0.05  0.00  0.00  0.95  0.00  0.00  0.00  0.00  0.00
  N02-011-N02-010         1.00   0.05  0.00  0.00  0.95  0.00  0.00  0.00  0.00  0.00
  N03-001-N06-036A        1.00   0.05  0.00  0.00  0.02  0.93  0.00  0.00  0.95  0.00
  N03-004-N03-002         1.00   0.05  0.00  0.00  0.95  0.00  0.00  0.00  0.00  0.00
  N03-006-N03-005         1.00   0.05  0.09  0.00  0.86  0.00  0.00  0.00  0.95  0.00
  N06-001-T05-044         1.43   0.00  0.00  0.00  0.04  0.96  0.00  0.00  1.00  0.00
  N06-006A-N06-006        1.25   0.00  0.00  0.00  0.00  1.00  0.00  0.00  0.00  0.00
  N06-007-N06-006A        1.00   0.00  0.00  0.00  0.09  0.91  0.00  0.00  0.98  0.00
  N06-010-N06-009         1.00   0.00  0.00  0.00  1.00  0.00  0.00  0.00  0.00  0.00
  N06-036A-N06-010        1.04   0.00  0.05  0.00  0.95  0.00  0.00  0.00  0.95  0.00
  N07-055-T05-054         1.46   0.00  0.00  0.00  0.07  0.93  0.00  0.00  0.00  0.00
  N07-055A-N07-055        1.00   0.00  0.00  0.00  0.68  0.32  0.00  0.00  0.00  0.00
  N07-056-N07-055A        1.28   0.00  0.00  0.00  0.59  0.41  0.00  0.00  1.00  0.00
  N07-057-N07-056         1.37   0.00  0.00  0.00  0.16  0.84  0.00  0.00  1.00  0.00
  N08-001-N09-026         1.16   0.00  0.00  0.00  1.00  0.00  0.00  0.00  1.00  0.00
  N09-029-N09-030         1.00   0.00  0.00  0.00  0.76  0.24  0.00  0.00  0.00  0.00
  N09-031-N09-032         2.71   0.00  0.00  0.00  1.00  0.00  0.00  0.00  1.00  0.00
  N10-003-N10-004         1.00   0.00  0.00  0.00  1.00  0.00  0.00  0.00  0.01  0.00
  N10-012-N10-023         1.10   0.00  0.00  0.00  0.01  0.99  0.00  0.00  0.00  0.00
  N10-023-N10-027         1.53   0.00  0.00  0.00  0.94  0.06  0.00  0.00  1.00  0.00
  N10-028-N10-028A        1.11   0.00  0.00  0.00  0.07  0.93  0.00  0.00  1.00  0.00
  N10-035-N10-034         1.02   0.00  0.00  0.00  0.08  0.92  0.00  0.00  1.00  0.00
  N10-058-N10-012         1.03   0.00  0.00  0.00  1.00  0.00  0.00  0.00  1.00  0.00
  N13-001-T05-015         1.70   0.00  0.00  0.00  0.90  0.10  0.00  0.00  1.00  0.00
  N13-002A-N13-002        1.25   0.00  0.00  0.00  1.00  0.00  0.00  0.00  0.00  0.00
  N13-010-N13-007A        1.55   0.00  0.00  0.00  1.00  0.00  0.00  0.00  0.81  0.00
  N14-001-N23-020         1.15   0.00  0.00  0.00  0.15  0.85  0.00  0.00  0.54  0.00
  N14-010-N14-011         1.00   0.00  0.00  0.00  1.00  0.00  0.00  0.00  0.23  0.00
  N14-011-N14-012         1.00   0.00  0.00  0.00  0.24  0.76  0.00  0.00  0.22  0.00
  N14-012-N14-013         2.27   0.00  0.00  0.00  0.69  0.31  0.00  0.00  1.00  0.00
  N14-013-N14-026         1.22   0.00  0.00  0.00  0.00  1.00  0.00  0.00  1.00  0.00
  N14-026-N14-027         1.00   0.00  0.00  0.00  0.00  1.00  0.00  0.00  0.00  0.00
  N14-028-N14-029         1.40   0.00  0.00  0.00  0.01  0.99  0.00  0.00  1.00  0.00
  N14-030-N14-032A        2.62   0.00  0.00  0.00  0.00  1.00  0.00  0.00  0.00  0.00
  N14-032-N14-033         3.14   0.00  0.00  0.00  0.04  0.96  0.00  0.00  1.00  0.00
  N18-001-N18-001A        1.42   0.00  0.00  0.00  0.01  0.99  0.00  0.00  1.00  0.00
  N18-002-N18-001         1.60   0.00  0.00  0.00  0.00  1.00  0.00  0.00  1.00  0.00
  N18-002A-N18-002        1.00   0.00  0.00  0.00  0.00  1.00  0.00  0.00  0.00  0.00
  N18-003-N18-003B        1.47   0.00  0.00  0.00  0.00  1.00  0.00  0.00  1.00  0.00
  N18-003A-N18-002A       1.00   0.00  0.00  0.00  0.00  1.00  0.00  0.00  0.99  0.00
  N18-004-N18-004C        1.23   0.05  0.03  0.00  0.91  0.00  0.00  0.00  0.91  0.00
  N18-004A-N18-003        1.09   0.00  0.07  0.00  0.76  0.17  0.00  0.00  0.95  0.00
  N18-034D-T05-009        3.02   0.00  0.00  0.00  0.96  0.04  0.00  0.00  1.00  0.00
  N19-001B-N19-001A       1.00   0.00  0.00  0.00  1.00  0.00  0.00  0.00  0.00  0.00
  N20-010-N20-009A        1.09   0.00  0.00  0.00  0.00  0.99  0.00  0.00  0.01  0.00
  N21-001-N22-034         1.82   0.00  0.00  0.00  0.00  1.00  0.00  0.00  1.00  0.00
  N21-025-N21-024         2.13   0.00  0.00  0.00  0.00  1.00  0.00  0.00  0.00  0.00
  N22-002-N22-001         1.00   0.00  0.00  0.00  0.27  0.73  0.00  0.00  0.17  0.00
  N22-004-N22-003A        1.30   0.00  0.00  0.00  0.02  0.98  0.00  0.00  1.00  0.00
  N22-006-N22-004         1.00   0.00  0.00  0.00  1.00  0.00  0.00  0.00  0.00  0.00
  N22-014-N22-013         1.00   0.00  0.00  0.00  1.00  0.00  0.00  0.00  0.99  0.00
  N22-022-N22-021         1.00   0.00  0.00  0.00  1.00  0.00  0.00  0.00  1.00  0.00
  N22-029-N22-022         1.00   0.00  0.00  0.00  0.00  1.00  0.00  0.00  1.00  0.00
  N22-034-N22-029         1.07   0.00  0.00  0.00  0.00  1.00  0.00  0.00  1.00  0.00
  N23-009-N23-002         1.00   0.00  0.00  0.00  0.18  0.82  0.00  0.00  0.00  0.00
  N23-010-N23-009         4.62   0.00  0.00  0.00  0.08  0.92  0.00  0.00  1.00  0.00
  N23-010A-N23-010        1.37   0.00  0.00  0.00  0.00  1.00  0.00  0.00  0.00  0.00
  N23-016A-N24-050        1.00   0.00  0.00  0.00  0.00  1.00  0.00  0.00  1.00  0.00
  N23-020-N23-018         1.02   0.00  0.00  0.00  0.00  1.00  0.00  0.00  0.00  0.00
  N24-001-C05-068A        1.70   0.00  0.00  0.00  1.00  0.00  0.00  0.00  1.00  0.00
  N24-004-N24-005         1.00   0.00  0.00  0.00  1.00  0.00  0.00  0.00  0.00  0.00
  N24-006-N24-005         1.73   0.00  0.00  0.00  1.00  0.00  0.00  0.00  0.55  0.00
  N26-001-N26-005         1.00   0.00  0.00  0.00  0.08  0.92  0.00  0.00  0.88  0.00
  N26-005-N26-025         1.00   0.00  0.00  0.00  0.00  1.00  0.00  0.00  0.63  0.00
  N26-008-N26-005         1.00   0.00  0.00  0.00  1.00  0.00  0.00  0.00  0.00  0.00
  N26-025-N19-057A        1.00   0.00  0.00  0.00  0.00  1.00  0.00  0.00  1.00  0.00
  N27-001A-N26-001        1.11   0.00  0.00  0.00  0.01  0.99  0.00  0.00  0.00  0.00
  ROAD-1                  1.00   0.16  0.02  0.00  0.07  0.75  0.00  0.00  0.11  0.00
  ROAD-2                  1.00   0.16  0.00  0.00  0.84  0.00  0.00  0.00  0.86  0.00
  ROAD-3                  1.00   0.16  0.00  0.00  0.84  0.00  0.00  0.00  0.00  0.00
  ROAD-4                  1.00   0.16  0.00  0.00  0.84  0.01  0.00  0.00  0.86  0.00
  ROAD-5                  1.00   0.16  0.00  0.00  0.84  0.00  0.00  0.00  0.00  0.00
  T03-001-T03-037         2.58   0.00  0.00  0.00  0.00  1.00  0.00  0.00  0.00  0.00
  T03-002-T03-001         6.18   0.00  0.00  0.00  1.00  0.00  0.00  0.00  1.00  0.00
  T05-004-T05-003         1.24   0.00  0.00  0.00  0.00  1.00  0.00  0.00  0.00  0.00
  T05-007-T05-006         2.06   0.00  0.00  0.00  0.13  0.87  0.00  0.00  0.94  0.00
  T05-009-T05-008         1.49   0.00  0.00  0.00  0.43  0.57  0.00  0.00  0.00  0.00
  T05-010-T05-009         1.24   0.00  0.00  0.00  0.50  0.50  0.00  0.00  1.00  0.00
  T05-012-T05-011         1.65   0.00  0.00  0.00  0.41  0.59  0.00  0.00  0.00  0.00
  T05-013-T05-012         1.19   0.00  0.00  0.00  1.00  0.00  0.00  0.00  1.00  0.00
  T05-014-T05-013         1.73   0.00  0.00  0.00  0.37  0.63  0.00  0.00  1.00  0.00
  T05-019-T05-018         1.39   0.00  0.00  0.00  0.22  0.78  0.00  0.00  1.00  0.00
  T05-021-T05-020         1.75   0.00  0.00  0.00  0.01  0.99  0.00  0.00  1.00  0.00
  T05-024-T05-023         1.34   0.00  0.00  0.00  0.00  1.00  0.00  0.00  1.00  0.00
  T05-028A-T05-027        3.31   0.00  0.00  0.00  0.00  1.00  0.00  0.00  0.00  0.00
  T05-030-T05-029         4.39   0.00  0.00  0.00  0.00  1.00  0.00  0.00  0.89  0.00
  T05-032-T05-030         1.00   0.00  0.00  0.00  1.00  0.00  0.00  0.00  0.00  0.00
  T05-033-T05-032A        1.27   0.00  0.00  0.00  1.00  0.00  0.00  0.00  1.00  0.00
  T05-035-T05-034         1.00   0.00  0.00  0.00  0.30  0.70  0.00  0.00  0.10  0.00
  T05-037-T05-036         1.00   0.00  0.00  0.00  1.00  0.00  0.00  0.00  0.78  0.00
  T05-039-T05-038         1.00   0.00  0.00  0.00  1.00  0.00  0.00  0.00  1.00  0.00
  T05-044-T05-043         1.13   0.00  0.00  0.00  0.00  1.00  0.00  0.00  0.00  0.00
  T05-045-T05-044         1.62   0.00  0.00  0.00  0.00  1.00  0.00  0.00  1.00  0.00
  T05-050-T05-049         1.10   0.00  0.00  0.00  0.00  1.00  0.00  0.00  0.00  0.00
  T05-052-T05-051A        1.22   0.00  0.00  0.00  0.00  1.00  0.00  0.00  1.00  0.00
  T05-054-T05-053         1.95   0.00  0.00  0.00  0.00  1.00  0.00  0.00  0.66  0.00
  T07-017-T07-016         1.36   0.00  0.00  0.00  0.00  1.00  0.00  0.00  0.00  0.00
  T07-019-T07-018         4.24   0.00  0.00  0.00  0.00  1.00  0.00  0.00  1.00  0.00
  T08-001-T07-021         1.90   0.00  0.00  0.00  0.01  0.99  0.00  0.00  0.00  0.00
  T08-004-T08-003         3.16   0.00  0.00  0.00  0.01  0.99  0.00  0.00  1.00  0.00
  T08-006-T08-005         1.05   0.00  0.00  0.00  0.03  0.97  0.00  0.00  0.62  0.00
  T08-007-T08-006         1.00   0.00  0.00  0.00  0.14  0.86  0.00  0.00  0.00  0.00
  T08-009-T08-008         1.12   0.00  0.00  0.00  0.41  0.59  0.00  0.00  1.00  0.00
  T08-010-T08-009         2.52   0.00  0.00  0.00  0.00  1.00  0.00  0.00  1.00  0.00
  T08-012-T08-011         1.16   0.00  0.00  0.00  0.00  1.00  0.00  0.00  0.00  0.00
  T09-002-T09-001         1.41   0.00  0.00  0.00  0.07  0.93  0.00  0.00  1.00  0.00
  T09-003-T09-002         1.10   0.00  0.05  0.00  0.01  0.94  0.00  0.00  0.65  0.00
  T09-008-T09-007         1.00   0.05  0.00  0.00  0.02  0.93  0.00  0.00  0.00  0.00
  T09-009A-T09-009        2.62   0.05  0.17  0.00  0.78  0.00  0.00  0.00  0.95  0.00
  
  
  *************************
  Conduit Surcharge Summary
  *************************
  
  ----------------------------------------------------------------------------
                                                           Hours        Hours 
                         --------- Hours Full --------   Above Full   Capacity
  Conduit                Both Ends  Upstream  Dnstream   Normal Flow   Limited
  ----------------------------------------------------------------------------
  45756                       0.01      0.01      0.01      9.96         0.01
  45829                       0.01      0.01      0.01     18.94         0.01
  47250                       0.01      0.01      0.01     23.36         0.01
  48644                       0.01      0.01      0.01     51.34         0.01
  50089                       0.01      0.01     11.34      0.01         0.01
  50097                       0.01      0.01      0.01     12.29         0.01
  50178                       0.01      0.01      0.01     23.07         0.01
  50213                       0.01      0.01      0.01     43.43         0.01
  53163                       0.01      0.01      0.01      8.22         0.01
  55870                       0.01      0.01      0.80      0.01         0.01
  57331                       0.01      0.01      0.01     10.37         0.01
  57335                       0.01      0.01      0.01     29.38         0.01
  CDT-23                      0.01      0.01     19.58      0.01         0.01
  CDT-33                      0.01      0.01     86.11      0.01         0.01
  CDT-37                      0.01      0.01      0.01     72.27         0.01
  N02-009-N02-008             0.01      0.01      0.01      8.48         0.01
  N03-004-N03-002             0.01      0.01      0.01     22.23         0.01
  N06-010-N06-009             0.01      0.01      0.01     27.44         0.01
  ROAD-3                      0.01      0.01      0.01      3.57         0.01
  ROAD-4                      0.01      0.01     72.97      0.01         0.01
  ROAD-5                     72.97     72.97     81.06      0.01         0.01
  T03-002-T03-001             0.01      0.01     41.37      0.01         0.01
  T05-039-T05-038             0.01      0.01     19.58      0.01         0.01
  
  
  ***************
  Pumping Summary
  ***************
  
  ---------------------------------------------------------------------------------------------------------
                                                  Min       Avg       Max     Total     Power    % Time Off
                        Percent   Number of      Flow      Flow      Flow    Volume     Usage    Pump Curve
  Pump                 Utilized   Start-Ups       CFS       CFS       CFS  10^6 gal     Kw-hr    Low   High
  ---------------------------------------------------------------------------------------------------------
  DIVERT_PUMP              0.00           0      0.00      0.00      0.00     0.000      0.00    0.0    0.0
  PUMP-11                 58.42          11      0.00     14.28     18.00    21.559   2326.92    0.0    0.0
  PUMP-13                  5.82          26      0.00     65.19     71.74     9.798    318.78    0.0    0.0
  PUMP-15                  0.00           0      0.00      0.00      0.00     0.000      0.00    0.0    0.0
  TUNNEL_PUMP_A           11.58          25      0.00     32.05     36.49     9.576    336.56    0.0    0.0
  

  Analysis begun on:  Wed Jan 02 08:32:24 2019
  Analysis ended on:  Wed Jan 02 08:32:57 2019
  Total elapsed time: 00:00:33