
  EPA STORM WATER MANAGEMENT MODEL - VERSION 5.1 (Build 5.1.012)
  --------------------------------------------------------------

   RUNOFF EXAMPLE 7  PARABOLIC CHANNELS  GROUNDWATER 
   LAKE MODELED AS WIDE PARABOLIC CHANNEL WITH OUTLET WEIR 
  
  WARNING 09: time series interval greater than recording interval for Rain Gage GAGE1
  WARNING 02: maximum depth increased for Node GWFlowNode
  
  *********************************************************
  NOTE: The summary statistics displayed in this report are
  based on results found at every computational time step,  
  not just on results from each reporting time step.
  *********************************************************
  
  ****************
  Analysis Options
  ****************
  Flow Units ............... CFS
  Process Models:
    Rainfall/Runoff ........ YES
    RDII ................... NO
    Snowmelt ............... NO
    Groundwater ............ YES
    Flow Routing ........... YES
    Ponding Allowed ........ NO
    Water Quality .......... NO
  Infiltration Method ...... GREEN_AMPT
  Flow Routing Method ...... KINWAVE
  Starting Date ............ 01/01/1966 00:00:00
  Ending Date .............. 01/08/1966 00:00:00
  Antecedent Dry Days ...... 0.0
  Report Time Step ......... 00:15:00
  Wet Time Step ............ 00:15:00
  Dry Time Step ............ 00:15:00
  Routing Time Step ........ 300.00 sec
  
  
  **************************        Volume         Depth
  Runoff Quantity Continuity     acre-feet        inches
  **************************     ---------       -------
  Total Precipitation ......       450.000         6.000
  Evaporation Loss .........         7.047         0.094
  Infiltration Loss ........       356.768         4.757
  Surface Runoff ...........        87.753         1.170
  Final Storage ............         0.000         0.000
  Continuity Error (%) .....        -0.348
  
  
  **************************        Volume         Depth
  Groundwater Continuity         acre-feet        inches
  **************************     ---------       -------
  Initial Storage ..........      6133.500        81.780
  Infiltration .............       356.768         4.757
  Upper Zone ET ............        14.357         0.191
  Lower Zone ET ............         2.526         0.034
  Deep Percolation .........         9.197         0.123
  Groundwater Flow .........        58.276         0.777
  Final Storage ............      6405.907        85.412
  Continuity Error (%) .....         0.000
  
  
  **************************        Volume        Volume
  Flow Routing Continuity        acre-feet      10^6 gal
  **************************     ---------     ---------
  Dry Weather Inflow .......         0.000         0.000
  Wet Weather Inflow .......        87.753        28.596
  Groundwater Inflow .......        58.250        18.982
  RDII Inflow ..............         0.000         0.000
  External Inflow ..........         0.000         0.000
  External Outflow .........       146.592        47.769
  Flooding Loss ............         0.000         0.000
  Evaporation Loss .........         0.249         0.081
  Exfiltration Loss ........         0.000         0.000
  Initial Stored Volume ....         0.000         0.000
  Final Stored Volume ......         0.872         0.284
  Continuity Error (%) .....        -1.170
  
  
  ********************************
  Highest Flow Instability Indexes
  ********************************
  All links are stable.
  
  
  *************************
  Routing Time Step Summary
  *************************
  Minimum Time Step           :   300.00 sec
  Average Time Step           :   300.00 sec
  Maximum Time Step           :   300.00 sec
  Percent in Steady State     :     0.00
  Average Iterations per Step :     1.05
  Percent Not Converging      :     0.00
  
  
  ***************************
  Subcatchment Runoff Summary
  ***************************
  
  --------------------------------------------------------------------------------------------------------
                            Total      Total      Total      Total      Total       Total     Peak  Runoff
                           Precip      Runon       Evap      Infil     Runoff      Runoff   Runoff   Coeff
  Subcatchment                 in         in         in         in         in    10^6 gal      CFS
  --------------------------------------------------------------------------------------------------------
  FixedGWDepth               6.00       0.00       0.13       4.79       1.09        8.85    31.58   0.181
  ThresholdGWElev            6.00       0.00       0.03       4.69       1.34       10.89   218.71   0.223
  NodeGWDepth                6.00       0.00       0.13       4.79       1.09        8.85    31.58   0.181
  
  
  *******************
  Groundwater Summary
  *******************
  
  -----------------------------------------------------------------------------------------------------
                                            Total    Total  Maximum  Average  Average    Final    Final
                          Total    Total    Lower  Lateral  Lateral    Upper    Water    Upper    Water
                          Infil     Evap  Seepage  Outflow  Outflow   Moist.    Table   Moist.    Table
  Subcatchment               in       in       in       in      CFS                ft                ft
  -----------------------------------------------------------------------------------------------------
  FixedGWDepth             4.79     0.23     0.12     0.40     0.77     0.30     7.41     0.30     7.30
  ThresholdGWElev          4.69     0.22     0.12     1.45   -10.85     0.30     7.09     0.30     6.71
  NodeGWDepth              4.79     0.23     0.12     0.48    -1.17     0.30     7.40     0.30     7.25
  
  
  ******************
  Node Depth Summary
  ******************
  
  ---------------------------------------------------------------------------------
                                 Average  Maximum  Maximum  Time of Max    Reported
                                   Depth    Depth      HGL   Occurrence   Max Depth
  Node                 Type         Feet     Feet     Feet  days hr:min        Feet
  ---------------------------------------------------------------------------------
  GWFlowNode           JUNCTION     1.51     8.48    11.48     0  02:50        7.60
  Node2                JUNCTION     1.51     7.77     9.77     0  03:05        7.61
  Outfall              OUTFALL      0.23     1.06     1.06     0  03:15        1.06
  
  
  *******************
  Node Inflow Summary
  *******************
  
  -------------------------------------------------------------------------------------------------
                                  Maximum  Maximum                  Lateral       Total        Flow
                                  Lateral    Total  Time of Max      Inflow      Inflow     Balance
                                   Inflow   Inflow   Occurrence      Volume      Volume       Error
  Node                 Type           CFS      CFS  days hr:min    10^6 gal    10^6 gal     Percent
  -------------------------------------------------------------------------------------------------
  GWFlowNode           JUNCTION    274.56   274.56     0  02:50        47.6        47.6       0.000
  Node2                JUNCTION      0.00   230.37     0  03:05           0        47.8       0.000
  Outfall              OUTFALL       0.00   213.97     0  03:15           0        47.8       0.000
  
  
  *********************
  Node Flooding Summary
  *********************
  
  No nodes were flooded.
  
  
  ***********************
  Outfall Loading Summary
  ***********************
  
  -----------------------------------------------------------
                         Flow       Avg       Max       Total
                         Freq      Flow      Flow      Volume
  Outfall Node           Pcnt       CFS       CFS    10^6 gal
  -----------------------------------------------------------
  Outfall               99.70     10.59    213.97      47.766
  -----------------------------------------------------------
  System                99.70     10.59    213.97      47.766
  
  
  ********************
  Link Flow Summary
  ********************
  
  -----------------------------------------------------------------------------
                                 Maximum  Time of Max   Maximum    Max/    Max/
                                  |Flow|   Occurrence   |Veloc|    Full    Full
  Link                 Type          CFS  days hr:min    ft/sec    Flow   Depth
  -----------------------------------------------------------------------------
  1                    CONDUIT    230.37     0  03:05      3.05    0.60    0.74
  2                    CONDUIT    213.97     0  03:15      1.96    0.01    0.11
  
  
  *************************
  Conduit Surcharge Summary
  *************************
  
  No conduits were surcharged.
  

  Analysis begun on:  Wed Jan 02 08:32:57 2019
  Analysis ended on:  Wed Jan 02 08:32:57 2019
  Total elapsed time: < 1 sec