
  EPA STORM WATER MANAGEMENT MODEL - VERSION 5.1 (Build 5.1.012)
  --------------------------------------------------------------

  WARNING 09: time series interval greater than recording interval for Rain Gage GAGE_HMS_TYPE1A_4MIN
  WARNING 01: wet weather time step reduced to recording interval for Rain Gage GAGE_HMS_TYPE1A_4MIN
  WARNING 09: time series interval greater than recording interval for Rain Gage GAGE_HMS_TYPE1_1MIN
  WARNING 09: time series interval greater than recording interval for Rain Gage GAGE_HMS_TYPE1_4MIN
  WARNING 09: time series interval greater than recording interval for Rain Gage GAGE_HMS_TYPE2_4MIN
  WARNING 09: time series interval greater than recording interval for Rain Gage GAGE_HMS_TYPE3_4MIN
  WARNING 07: routing time step reduced to the wet weather time step 
  
  *********************************************************
  NOTE: The summary statistics displayed in this report are
  based on results found at every computational time step,  
  not just on results from each reporting time step.
  *********************************************************
  
  ****************
  Analysis Options
  ****************
  Flow Units ............... CFS
  Process Models:
    Rainfall/Runoff ........ YES
    RDII ................... NO
    Snowmelt ............... NO
    Groundwater ............ NO
    Flow Routing ........... NO
    Water Quality .......... NO
  Infiltration Method ...... HORTON
  Starting Date ............ 01/01/2002 00:00:00
  Ending Date .............. 01/01/2002 23:00:00
  Antecedent Dry Days ...... 5.0
  Report Time Step ......... 00:05:00
  Wet Time Step ............ 00:00:04
  Dry Time Step ............ 00:01:00
  
  
  **************************        Volume         Depth
  Runoff Quantity Continuity     acre-feet        inches
  **************************     ---------       -------
  Total Precipitation ......         0.407         0.977
  Evaporation Loss .........         0.010         0.024
  Infiltration Loss ........         0.305         0.733
  Surface Runoff ...........         0.087         0.209
  Final Storage ............         0.005         0.011
  Continuity Error (%) .....         0.000
  
  
  **************************        Volume        Volume
  Flow Routing Continuity        acre-feet      10^6 gal
  **************************     ---------     ---------
  Dry Weather Inflow .......         0.000         0.000
  Wet Weather Inflow .......         0.000         0.000
  Groundwater Inflow .......         0.000         0.000
  RDII Inflow ..............         0.000         0.000
  External Inflow ..........         0.000         0.000
  External Outflow .........         0.000         0.000
  Flooding Loss ............         0.000         0.000
  Evaporation Loss .........         0.000         0.000
  Exfiltration Loss ........         0.000         0.000
  Initial Stored Volume ....         0.000         0.000
  Final Stored Volume ......         0.000         0.000
  Continuity Error (%) .....         0.000
  
  
  ***************************
  Subcatchment Runoff Summary
  ***************************
  
  --------------------------------------------------------------------------------------------------------
                            Total      Total      Total      Total      Total       Total     Peak  Runoff
                           Precip      Runon       Evap      Infil     Runoff      Runoff   Runoff   Coeff
  Subcatchment                 in         in         in         in         in    10^6 gal      CFS
  --------------------------------------------------------------------------------------------------------
  1                          0.98       0.00       0.02       0.73       0.21        0.03     0.29   0.214
  

  Analysis begun on:  Wed Jan 02 08:32:59 2019
  Analysis ended on:  Wed Jan 02 08:32:59 2019
  Total elapsed time: < 1 sec