
  EPA STORM WATER MANAGEMENT MODEL - VERSION 5.1 (Build 5.1.012)
  --------------------------------------------------------------

  Scenario Run :  SCN-10 
    Input and Output FilesSW 1 0 20 
    Input and Output FilesSW 1 0 20 
  
  
  *************
  Element Count
  *************
  Number of rain gages ...... 0
  Number of subcatchments ... 0
  Number of nodes ........... 61
  Number of links ........... 61
  Number of pollutants ...... 0
  Number of land uses ....... 0
  
  
  ************
  Node Summary
  ************
                                           Invert      Max.    Ponded    External
  Name                 Type                 Elev.     Depth      Area    Inflow  
  -------------------------------------------------------------------------------
  10309                JUNCTION            101.60      9.40       0.0
  10309A               JUNCTION            101.60      9.40       0.0
  10309B               JUNCTION            101.60      9.40       0.0
  10309C               JUNCTION            101.60      9.40       0.0
  10309D               JUNCTION            101.60      9.40       0.0
  10309E               JUNCTION            101.60      9.40       0.0
  15009                JUNCTION            111.50     13.50       0.0
  15009A               JUNCTION            111.50     13.50       0.0
  15009B               JUNCTION            111.50     13.50       0.0
  15009C               JUNCTION            111.50     13.50       0.0
  15009D               JUNCTION            111.50     13.50       0.0
  15009E               JUNCTION            111.50     13.50       0.0
  16009                JUNCTION            102.00     18.00       0.0
  16009A               JUNCTION            102.00     18.00       0.0
  16009B               JUNCTION            102.00     18.00       0.0
  16009C               JUNCTION            102.00     18.00       0.0
  16009D               JUNCTION            102.00     18.00       0.0
  16009E               JUNCTION            102.00     18.00       0.0
  16109                JUNCTION            102.80     22.20       0.0
  16109A               JUNCTION            102.80     22.20       0.0
  16109B               JUNCTION            102.80     22.20       0.0
  16109C               JUNCTION            102.80     22.20       0.0
  16109D               JUNCTION            102.80     22.20       0.0
  16109E               JUNCTION            102.80     22.20       0.0
  80408                JUNCTION            124.60     13.40       0.0    Yes
  80408A               JUNCTION            124.60     13.40       0.0    Yes
  80408B               JUNCTION            124.60     13.40       0.0    Yes
  80408D               JUNCTION            124.60     13.40       0.0    Yes
  80408E               JUNCTION            124.60     13.40       0.0    Yes
  80608                JUNCTION            118.30     16.70       0.0
  80608A               JUNCTION            118.30     16.70       0.0
  80608B               JUNCTION            118.30     16.70       0.0
  80608C               JUNCTION            118.30     16.70       0.0
  80608D               JUNCTION            118.30     16.70       0.0
  80608E               JUNCTION            118.30     16.70       0.0
  81009                JUNCTION            128.20      8.80       0.0    Yes
  81009A               JUNCTION            128.20      8.80       0.0    Yes
  81009B               JUNCTION            128.20      8.80       0.0    Yes
  81009C               JUNCTION            128.20      8.80       0.0    Yes
  81009D               JUNCTION            128.20      8.80       0.0    Yes
  81009E               JUNCTION            128.20      8.80       0.0    Yes
  81309                JUNCTION            117.50     12.50       0.0
  81309A               JUNCTION            117.50     12.50       0.0
  81309B               JUNCTION            117.50     12.50       0.0
  81309C               JUNCTION            117.50     12.50       0.0
  81309D               JUNCTION            117.50     12.50       0.0
  81309E               JUNCTION            117.50     12.50       0.0
  82308D               JUNCTION            112.30     42.70       0.0
  82309                JUNCTION            112.30     42.70       0.0    Yes
  82309A               JUNCTION            112.30     42.70       0.0    Yes
  82309B               JUNCTION            112.30     42.70       0.0    Yes
  82309C               JUNCTION            112.30     42.70       0.0    Yes
  82309E               JUNCTION            112.30     42.70       0.0    Yes
  MEE                  JUNCTION            124.60     13.40       0.0    Yes
  10208                OUTFALL              89.90      9.00       0.0
  10208A               OUTFALL              89.90      9.00       0.0
  10208B               OUTFALL              89.90      9.00       0.0
  10208C               OUTFALL              89.90      9.00       0.0
  10208D               OUTFALL              89.90      9.00       0.0
  10208E               OUTFALL              89.90      9.00       0.0
  82309D               STORAGE             112.30     42.70       0.0    Yes
  
  
  ************
  Link Summary
  ************
  Name             From Node        To Node          Type            Length    %Slope Roughness
  ---------------------------------------------------------------------------------------------
  1030             10309            10208            CONDUIT         2705.6    0.4324    0.0160
  1030A            10309A           10208A           CONDUIT         2705.6    0.4324    0.0160
  1030B            10309B           10208B           CONDUIT         4091.4    0.2860    0.0160
  1030C            10309C           10208C           CONDUIT         2705.6    0.4324    0.0160
  1030D            10309D           10208D           CONDUIT         2705.6    0.4324    0.0160
  1030E            10208E           10309E           CONDUIT         2705.6   -0.4324    0.0160
  1570             15009            16009            CONDUIT         2484.2    0.3824    0.0154
  1570A            15009A           16009A           CONDUIT         2484.2    0.3824    0.0154
  1570B            15009B           16009B           CONDUIT         2484.2    0.3824    0.0154
  1570C            15009C           16009C           CONDUIT         2484.2    0.3824    0.0154
  1570D            15009D           16009D           CONDUIT         2484.2    0.3824    0.0154
  1570E            15009E           16009E           CONDUIT         2484.2    0.3824    0.0154
  1600             16009            16109            CONDUIT         5115.8   -0.0156    0.0150
  1600A            16009A           16109A           CONDUIT         5115.8   -0.0156    0.0150
  1600B            16009B           16109B           CONDUIT         5115.8   -0.0156    0.0150
  1600C            16009C           16109C           CONDUIT         5115.8   -0.0156    0.0150
  1600D            16009D           16109D           CONDUIT         5115.8   -0.0156    0.0150
  1600E            16009E           16109E           CONDUIT         5115.8   -0.0156    0.0150
  1602             82309            16109            CONDUIT         2463.2    0.3857    0.0340
  1602A            82309A           16109A           CONDUIT         2463.2    0.3857    0.0340
  1602B            82309B           16109B           CONDUIT         2463.2    0.3857    0.0340
  1602C            82309C           16109C           CONDUIT         2463.2    0.3857    0.0340
  1602D            82309D           16109D           CONDUIT         2463.2    0.3857    0.0340
  1602E            82309E           16109E           CONDUIT         2463.2    0.3857    0.0340
  1630             16009            10309            CONDUIT         2105.3    0.0190    0.0150
  1630A            16009A           10309A           CONDUIT         2105.3    0.0190    0.0150
  1630B            16009B           10309B           CONDUIT         2105.3    0.0190    0.0150
  1630C            16009C           10309C           CONDUIT         2105.3    0.0190    0.0150
  1630D            16009D           10309D           CONDUIT         2105.3    0.0190    0.0150
  1630E            16009E           10309E           CONDUIT         2105.3    0.0190    0.0150
  8040             80408            80608            CONDUIT         2652.6    0.2375    0.0150
  8040A            80408A           80608A           CONDUIT         2652.6    0.2375    0.0150
  8040B            80408B           80608B           CONDUIT         2652.6    0.2375    0.0150
  8040C            MEE              80608C           CONDUIT         2652.6    0.2375    0.0150
  8040D            80408D           80608D           CONDUIT         2652.6    0.2375    0.0150
  8040E            80408E           80608E           CONDUIT         2652.6    0.2375    0.0150
  8060             80608            82309            CONDUIT         2505.3    0.1517    0.0150
  8060B            80608B           82309B           CONDUIT         2505.3    0.1517    0.0150
  8060C            80608C           82309C           CONDUIT         2505.3    0.1517    0.0150
  8060D            80608D           82309D           CONDUIT         2505.3    0.1517    0.0150
  8060E            80608E           82309E           CONDUIT         2505.3    0.1517    0.0150
  8100             81009            81309            CONDUIT         2421.1    0.4420    0.0150
  8100A            81009A           81309A           CONDUIT         2421.1    0.4420    0.0150
  8100B            81009B           81309B           CONDUIT         2421.1    0.4420    0.0150
  8100C            81009C           81309C           CONDUIT         2421.1    0.4420    0.0150
  8100D            81009D           81309D           CONDUIT         2421.1    0.4420    0.0150
  8130             81309            15009            CONDUIT         2589.5    0.2317    0.0150
  8130A            81309A           15009A           CONDUIT         2589.5    0.2317    0.0150
  8130B            81309B           15009B           CONDUIT         2589.5    0.2317    0.0150
  8130C            81309C           15009C           CONDUIT         2589.5    0.2317    0.0150
  8130D            81309D           15009D           CONDUIT         2589.5    0.2317    0.0150
  8130E            81309E           15009E           CONDUIT         2589.5    0.2317    0.0150
  PUMP1@82309E-15009E 82309E           15009E           TYPE2 PUMP  
  OR1@82309B-15009B 82309B           15009B           ORIFICE     
  OR1@82309D-82308D 82309D           82308D           ORIFICE     
  ORI-11           80608B           81309B           ORIFICE     
  WEIR-11          80608D           81309D           WEIR        
  WEIR1@82309C-15009C 82309C           15009C           WEIR        
  8100E            81009E           81309E           OUTLET      
  HIGHFLOW         80608A           82309A           OUTLET      
  LOWFLOW          80608A           81309A           OUTLET      
  
  
  *********************
  Cross Section Summary
  *********************
                                        Full     Full     Hyd.     Max.   No. of     Full
  Conduit          Shape               Depth     Area     Rad.    Width  Barrels     Flow
  ---------------------------------------------------------------------------------------
  1030             TRIANGULAR           9.00   243.00     4.27    54.00        1  3905.65
  1030A            TRIANGULAR           9.00   243.00     4.27    54.00        1  3905.65
  1030B            TRIANGULAR           9.00   243.00     4.27    54.00        1  3176.05
  1030C            TRIANGULAR           9.00   243.00     4.27    54.00        1  3905.62
  1030D            TRIANGULAR           9.00   243.00     4.27    54.00        1  3905.62
  1030E            TRIANGULAR           9.00   243.00     4.27    54.00        1  3905.62
  1570             CIRCULAR             5.50    23.76     1.38     5.50        1   175.30
  1570A            CIRCULAR             5.50    23.76     1.38     5.50        1   175.30
  1570B            CIRCULAR             5.50    23.76     1.38     5.50        1   175.30
  1570C            CIRCULAR             5.50    23.76     1.38     5.50        1   175.30
  1570D            CIRCULAR             5.50    23.76     1.38     5.50        1   175.30
  1570E            CIRCULAR             5.50    23.76     1.38     5.50        1   175.30
  1600             CIRCULAR             6.00    28.27     1.50     6.00        1    45.90
  1600A            CIRCULAR             6.00    28.27     1.50     6.00        1    45.90
  1600B            CIRCULAR             6.00    28.27     1.50     6.00        1    45.90
  1600C            CIRCULAR             6.00    28.27     1.50     6.00        1    45.90
  1600D            CIRCULAR             6.00    28.27     1.50     6.00        1    45.90
  1600E            CIRCULAR             6.00    28.27     1.50     6.00        1    45.90
  1602             CIRCULAR             5.00    19.63     1.25     5.00        1    61.84
  1602A            CIRCULAR             5.00    19.63     1.25     5.00        1    61.84
  1602B            CIRCULAR             5.00    19.63     1.25     5.00        1    61.84
  1602C            CIRCULAR             5.00    19.63     1.25     5.00        1    61.84
  1602D            CIRCULAR             5.00    19.63     1.25     5.00        1    61.84
  1602E            CIRCULAR             5.00    19.63     1.25     5.00        1    61.84
  1630             TRIANGULAR           9.00   243.00     4.27    54.00        1   873.24
  1630A            TRIANGULAR           9.00   243.00     4.27    54.00        1   873.24
  1630B            TRIANGULAR           9.00   243.00     4.27    54.00        1   873.24
  1630C            TRIANGULAR           9.00   243.00     4.27    54.00        1   873.24
  1630D            TRIANGULAR           9.00   243.00     4.27    54.00        1   873.24
  1630E            TRIANGULAR           9.00   243.00     4.27    54.00        1   873.24
  8040             CIRCULAR             4.00    12.57     1.00     4.00        1    60.67
  8040A            CIRCULAR             4.00    12.57     1.00     4.00        1    60.67
  8040B            CIRCULAR             4.00    12.57     1.00     4.00        1    60.67
  8040C            CIRCULAR             4.00    12.57     1.00     4.00        1    60.67
  8040D            CIRCULAR             4.00    12.57     1.00     4.00        1    60.67
  8040E            CIRCULAR             4.00    12.57     1.00     4.00        1    60.67
  8060             CIRCULAR             4.00    12.57     1.00     4.00        1    48.48
  8060B            CIRCULAR             4.00    12.57     1.00     4.00        1    48.48
  8060C            CIRCULAR             4.00    12.57     1.00     4.00        1    48.48
  8060D            CIRCULAR             4.00    12.57     1.00     4.00        1    48.48
  8060E            CIRCULAR             4.00    12.57     1.00     4.00        1    48.48
  8100             CIRCULAR             4.50    15.90     1.13     4.50        1   113.30
  8100A            CIRCULAR             4.50    15.90     1.13     4.50        1   113.30
  8100B            CIRCULAR             4.50    15.90     1.13     4.50        1   113.30
  8100C            CIRCULAR             4.50    15.90     1.13     4.50        1   113.30
  8100D            CIRCULAR             4.50    15.90     1.13     4.50        1   113.30
  8130             CIRCULAR             4.50    15.90     1.13     4.50        1    82.04
  8130A            CIRCULAR             4.50    15.90     1.13     4.50        1    82.04
  8130B            CIRCULAR             4.50    15.90     1.13     4.50        1    82.04
  8130C            CIRCULAR             4.50    15.90     1.13     4.50        1    82.04
  8130D            CIRCULAR             4.50    15.90     1.13     4.50        1    82.04
  8130E            CIRCULAR             4.50    15.90     1.13     4.50        1    82.04
  
  
  
  *********************************************************
  NOTE: The summary statistics displayed in this report are
  based on results found at every computational time step,  
  not just on results from each reporting time step.
  *********************************************************
  
  ****************
  Analysis Options
  ****************
  Flow Units ............... CFS
  Process Models:
    Rainfall/Runoff ........ NO
    RDII ................... NO
    Snowmelt ............... NO
    Groundwater ............ NO
    Flow Routing ........... YES
    Ponding Allowed ........ YES
    Water Quality .......... NO
  Flow Routing Method ...... DYNWAVE
  Starting Date ............ 01/01/1988 00:00:00
  Ending Date .............. 01/01/1988 06:00:00
  Antecedent Dry Days ...... 0.0
  Report Time Step ......... 00:01:00
  Routing Time Step ........ 10.00 sec
  Variable Time Step ....... YES
  Maximum Trials ........... 8
  Number of Threads ........ 8
  Head Tolerance ........... 0.000100 ft
  
  
  *********************
  Control Actions Taken
  *********************

  
  **************************        Volume        Volume
  Flow Routing Continuity        acre-feet      10^6 gal
  **************************     ---------     ---------
  Dry Weather Inflow .......         0.000         0.000
  Wet Weather Inflow .......         0.000         0.000
  Groundwater Inflow .......         0.000         0.000
  RDII Inflow ..............         0.000         0.000
  External Inflow ..........       186.873        60.895
  External Outflow .........       170.147        55.445
  Flooding Loss ............         0.000         0.000
  Evaporation Loss .........         0.101         0.033
  Exfiltration Loss ........         0.000         0.000
  Initial Stored Volume ....         0.943         0.307
  Final Stored Volume ......         6.586         2.146
  Continuity Error (%) .....         5.847
  
  
  *************************
  Highest Continuity Errors
  *************************
  Node 16009E (2.93%)
  Node 80608E (-1.76%)
  Node 80608C (-1.69%)
  Node 16009A (1.68%)
  Node 16009 (1.51%)
  
  
  ***************************
  Time-Step Critical Elements
  ***************************
  None
  
  
  ********************************
  Highest Flow Instability Indexes
  ********************************
  Link OR1@82309D-82308D (56)
  Link HIGHFLOW (44)
  Link 8060 (1)
  Link 1602 (1)
  
  
  *************************
  Routing Time Step Summary
  *************************
  Minimum Time Step           :     3.95 sec
  Average Time Step           :     9.99 sec
  Maximum Time Step           :    10.00 sec
  Percent in Steady State     :     0.00
  Average Iterations per Step :     6.96
  Percent Not Converging      :    58.60
  
  
  ******************
  Node Depth Summary
  ******************
  
  ---------------------------------------------------------------------------------
                                 Average  Maximum  Maximum  Time of Max    Reported
                                   Depth    Depth      HGL   Occurrence   Max Depth
  Node                 Type         Feet     Feet     Feet  days hr:min        Feet
  ---------------------------------------------------------------------------------
  10309                JUNCTION     1.65     2.55   104.15     0  03:00        2.55
  10309A               JUNCTION     1.46     2.29   103.89     0  03:02        2.29
  10309B               JUNCTION     1.83     2.79   104.39     0  03:01        2.79
  10309C               JUNCTION     1.65     2.55   104.15     0  03:01        2.55
  10309D               JUNCTION     1.65     2.55   104.15     0  03:05        2.55
  10309E               JUNCTION     1.23     1.91   103.51     0  03:03        1.91
  15009                JUNCTION     1.15     2.01   113.51     0  01:31        2.01
  15009A               JUNCTION     1.15     2.01   113.51     0  01:31        2.01
  15009B               JUNCTION     1.59     2.67   114.17     0  00:43        2.67
  15009C               JUNCTION     1.34     2.46   113.96     0  00:34        2.46
  15009D               JUNCTION     1.29     2.28   113.78     0  03:01        2.28
  15009E               JUNCTION     0.51     0.67   112.17     0  00:26        0.67
  16009                JUNCTION     2.87     4.25   106.25     0  03:00        4.25
  16009A               JUNCTION     2.62     3.89   105.89     0  03:01        3.89
  16009B               JUNCTION     2.86     4.21   106.21     0  03:00        4.21
  16009C               JUNCTION     2.88     4.25   106.25     0  03:00        4.25
  16009D               JUNCTION     2.88     4.25   106.25     0  03:02        4.25
  16009E               JUNCTION     2.26     3.32   105.32     0  03:01        3.32
  16109                JUNCTION     3.61     6.13   108.93     0  01:27        6.13
  16109A               JUNCTION     2.76     4.54   107.34     0  03:00        4.54
  16109B               JUNCTION     2.76     4.69   107.49     0  03:00        4.69
  16109C               JUNCTION     3.21     5.19   107.99     0  03:00        5.19
  16109D               JUNCTION     3.35     5.51   108.31     0  03:01        5.51
  16109E               JUNCTION     2.78     4.67   107.47     0  03:00        4.67
  80408                JUNCTION     3.47    12.85   137.45     0  01:06       12.73
  80408A               JUNCTION     0.66     1.28   125.88     0  00:24        1.28
  80408B               JUNCTION     1.38     2.78   127.38     0  00:25        2.78
  80408D               JUNCTION     1.38     2.75   127.35     0  00:25        2.75
  80408E               JUNCTION     0.93     1.80   126.40     0  00:24        1.80
  80608                JUNCTION     4.83    14.00   132.30     0  01:06       12.75
  80608A               JUNCTION     0.60     1.27   119.57     0  03:00        1.27
  80608B               JUNCTION     1.69     3.12   121.42     0  03:00        3.12
  80608C               JUNCTION     1.90     3.31   121.61     0  01:07        3.31
  80608D               JUNCTION     1.99     4.59   122.89     0  03:00        4.58
  80608E               JUNCTION     1.25     2.09   120.39     0  01:32        2.09
  81009                JUNCTION     1.11     2.09   130.29     0  01:18        2.09
  81009A               JUNCTION     1.11     2.09   130.29     0  01:18        2.09
  81009B               JUNCTION     1.12     2.10   130.30     0  00:18        2.10
  81009C               JUNCTION     1.11     2.09   130.29     0  01:18        2.09
  81009D               JUNCTION     1.11     2.09   130.29     0  01:19        2.09
  81009E               JUNCTION     0.00     0.00   128.20     0  00:00        0.00
  81309                JUNCTION     1.50     2.76   120.26     0  01:13        2.76
  81309A               JUNCTION     1.50     2.76   120.26     0  01:13        2.76
  81309B               JUNCTION     1.56     2.74   120.24     0  03:00        2.74
  81309C               JUNCTION     1.42     2.61   120.11     0  01:04        2.61
  81309D               JUNCTION     1.75     3.24   120.74     0  03:00        3.24
  81309E               JUNCTION     0.00     0.00   117.50     0  00:00        0.00
  82308D               JUNCTION     4.21     8.91   121.21     0  03:00        8.91
  82309                JUNCTION     6.41    15.14   127.44     0  01:06       14.57
  82309A               JUNCTION     1.98     4.34   116.64     0  00:26        4.34
  82309B               JUNCTION     1.87     3.82   116.12     0  00:37        3.82
  82309C               JUNCTION     2.67     4.64   116.94     0  01:39        4.64
  82309E               JUNCTION     2.05     4.28   116.58     0  00:38        4.28
  MEE                  JUNCTION     1.38     2.70   127.30     0  00:23        2.70
  10208                OUTFALL      1.63     2.55    92.45     0  03:00        2.55
  10208A               OUTFALL      4.50     4.50    94.40     0  00:00        4.50
  10208B               OUTFALL      1.68     2.63    92.53     0  03:01        2.63
  10208C               OUTFALL      1.64     2.55    92.45     0  03:00        2.55
  10208D               OUTFALL      1.64     2.55    92.45     0  03:04        2.55
  10208E               OUTFALL      1.21     1.91    91.81     0  03:03        1.91
  82309D               STORAGE      4.21     8.91   121.21     0  03:00        8.91
  
  
  *******************
  Node Inflow Summary
  *******************
  
  -------------------------------------------------------------------------------------------------
                                  Maximum  Maximum                  Lateral       Total        Flow
                                  Lateral    Total  Time of Max      Inflow      Inflow     Balance
                                   Inflow   Inflow   Occurrence      Volume      Volume       Error
  Node                 Type           CFS      CFS  days hr:min    10^6 gal    10^6 gal     Percent
  -------------------------------------------------------------------------------------------------
  10309                JUNCTION      0.00   134.98     0  03:00           0        10.7       0.594
  10309A               JUNCTION      0.00   101.22     0  03:01           0        8.03       1.326
  10309B               JUNCTION      0.00   134.97     0  03:00           0        10.8       0.808
  10309C               JUNCTION      0.00   134.98     0  03:00           0        10.8       0.607
  10309D               JUNCTION      0.00   134.79     0  03:03           0        10.7       0.590
  10309E               JUNCTION      0.00    62.48     0  03:01           0        4.89       0.899
  15009                JUNCTION      0.00    50.00     0  01:19           0        4.04      -0.211
  15009A               JUNCTION      0.00    50.00     0  01:19           0        4.04      -0.195
  15009B               JUNCTION      0.00    83.81     0  00:39           0        6.96      -0.162
  15009C               JUNCTION      0.00    70.88     0  01:31           0        5.56      -0.172
  15009D               JUNCTION      0.00    62.83     0  03:00           0        4.91      -0.137
  15009E               JUNCTION      0.00     5.00     0  00:02           0       0.567      -0.508
  16009                JUNCTION      0.00   135.26     0  01:29           0        10.9       1.535
  16009A               JUNCTION      0.00   101.25     0  03:00           0        8.17       1.712
  16009B               JUNCTION      0.00   135.00     0  03:00           0        10.9       0.981
  16009C               JUNCTION      0.00   135.00     0  03:00           0        10.9       1.517
  16009D               JUNCTION      0.00   134.86     0  03:01           0        10.9       1.502
  16009E               JUNCTION      0.00    62.50     0  03:00           0        5.04       3.023
  16109                JUNCTION      0.00    85.81     0  01:06           0        6.86       0.000
  16109A               JUNCTION      0.00    54.26     0  00:39           0        4.15       0.000
  16109B               JUNCTION      0.00    52.30     0  00:48           0        3.97       0.000
  16109C               JUNCTION      0.00    65.93     0  00:54           0        5.41       0.000
  16109D               JUNCTION      0.00    72.55     0  00:47           0           6       0.000
  16109E               JUNCTION      0.00    61.02     0  00:49           0         4.5       0.000
  80408                JUNCTION     45.00    45.00     0  00:15        3.64        3.64      -0.217
  80408A               JUNCTION     11.25    11.25     0  00:15       0.909       0.909      -0.296
  80408B               JUNCTION     45.00    45.00     0  00:15        3.64        3.64      -0.236
  80408D               JUNCTION     45.00    45.00     0  00:15        3.64        3.64      -0.177
  80408E               JUNCTION     22.50    22.50     0  00:15        1.82        1.82      -0.459
  80608                JUNCTION      0.00    46.89     0  03:07           0        3.64      -0.458
  80608A               JUNCTION      0.00    11.74     0  00:45           0       0.912       0.304
  80608B               JUNCTION      0.00    46.97     0  00:34           0        3.64       0.277
  80608C               JUNCTION      0.00    46.91     0  00:28           0        3.64      -1.659
  80608D               JUNCTION      0.00    46.38     0  00:31           0        3.64       0.099
  80608E               JUNCTION      0.00    23.68     0  00:32           0        1.83      -1.727
  81009                JUNCTION     50.00    50.00     0  00:15        4.04        4.04      -0.204
  81009A               JUNCTION     50.00    50.00     0  00:15        4.04        4.04      -0.204
  81009B               JUNCTION     50.00    50.00     0  00:15        4.04        4.04      -0.228
  81009C               JUNCTION     50.00    50.00     0  00:15        4.04        4.04      -0.198
  81009D               JUNCTION     50.00    50.00     0  00:15        4.04        4.04      -0.230
  81009E               JUNCTION     50.00    50.00     0  00:15        4.04        4.04 4039200.394 gal
  81309                JUNCTION      0.00    50.42     0  00:19           0        4.05       0.084
  81309A               JUNCTION      0.00    50.42     0  00:19           0        4.05       0.084
  81309B               JUNCTION      0.00    55.66     0  03:00           0        4.58       0.260
  81309C               JUNCTION      0.00    50.39     0  00:19           0        4.05       0.075
  81309D               JUNCTION      0.00    62.84     0  03:00           0        4.92       0.125
  81309E               JUNCTION      0.00     0.00     0  00:00           0           0       0.000 gal
  82308D               JUNCTION      0.00     6.36     0  03:31           0     0.00551       0.000
  82309                JUNCTION     40.00    85.59     0  01:06        3.23        6.89       0.498
  82309A               JUNCTION     40.00    51.25     0  03:00        3.23        4.14      -0.288
  82309B               JUNCTION     40.00    79.34     0  03:00        3.23        6.34      -0.234
  82309C               JUNCTION     40.00    85.19     0  01:17        3.23        6.94       0.174
  82309E               JUNCTION     40.00    62.54     0  01:43        3.23        5.09       0.374
  MEE                  JUNCTION     45.00    45.00     0  00:15        3.64        3.64      -0.251
  10208                OUTFALL       0.00   134.95     0  03:00           0        10.6       0.000
  10208A               OUTFALL       0.00   101.19     0  03:02           0        7.92       0.000
  10208B               OUTFALL       0.00   134.93     0  03:01           0        10.7       0.000
  10208C               OUTFALL       0.00   134.95     0  03:00           0        10.7       0.000
  10208D               OUTFALL       0.00   134.73     0  03:04           0        10.7       0.000
  10208E               OUTFALL       0.00    62.46     0  03:03           0        4.85       0.000
  82309D               STORAGE      40.00    78.62     0  00:54        3.23        6.01       0.124
  
  
  **********************
  Node Surcharge Summary
  **********************
  
  Surcharging occurs when water rises above the top of the highest conduit.
  ---------------------------------------------------------------------
                                               Max. Height   Min. Depth
                                   Hours       Above Crown    Below Rim
  Node                 Type      Surcharged           Feet         Feet
  ---------------------------------------------------------------------
  16109                JUNCTION        1.61          0.125       16.075
  80408                JUNCTION        1.95          8.846        0.554
  80608                JUNCTION        2.27         10.002        2.698
  80608D               JUNCTION        1.28          0.585       12.115
  81009E               JUNCTION        6.00          0.000        8.800
  82308D               JUNCTION        3.33          6.914       33.786
  82309                JUNCTION        2.54          8.939       27.561
  
  
  *********************
  Node Flooding Summary
  *********************
  
  No nodes were flooded.
  
  
  **********************
  Storage Volume Summary
  **********************
  
  --------------------------------------------------------------------------------------------------
                         Average     Avg  Evap Exfil       Maximum     Max    Time of Max    Maximum
                          Volume    Pcnt  Pcnt  Pcnt        Volume    Pcnt     Occurrence    Outflow
  Storage Unit          1000 ft3    Full  Loss  Loss      1000 ft3    Full    days hr:min        CFS
  --------------------------------------------------------------------------------------------------
  82309D                   3.365      10     0     0         7.131      21       0  03:00      72.55
  
  
  ***********************
  Outfall Loading Summary
  ***********************
  
  -----------------------------------------------------------
                         Flow       Avg       Max       Total
                         Freq      Flow      Flow      Volume
  Outfall Node           Pcnt       CFS       CFS    10^6 gal
  -----------------------------------------------------------
  10208                 92.60     71.11    134.95      10.645
  10208A                91.17     53.75    101.19       7.922
  10208B                94.63     69.72    134.93      10.666
  10208C                92.78     71.38    134.95      10.706
  10208D                92.69     71.11    134.73      10.656
  10208E                92.55     32.39     62.46       4.845
  -----------------------------------------------------------
  System                92.74    369.46    703.18      55.441
  
  
  ********************
  Link Flow Summary
  ********************
  
  -----------------------------------------------------------------------------
                                 Maximum  Time of Max   Maximum    Max/    Max/
                                  |Flow|   Occurrence   |Veloc|    Full    Full
  Link                 Type          CFS  days hr:min    ft/sec    Flow   Depth
  -----------------------------------------------------------------------------
  1030                 CONDUIT    134.95     0  03:00      6.93    0.03    0.28
  1030A                CONDUIT    101.19     0  03:02      2.93    0.03    0.38
  1030B                CONDUIT    134.93     0  03:01      6.13    0.04    0.30
  1030C                CONDUIT    134.95     0  03:00      6.93    0.03    0.28
  1030D                CONDUIT    134.73     0  03:04      6.93    0.03    0.28
  1030E                CONDUIT     62.46     0  03:03      5.72    0.02    0.21
  1570                 CONDUIT     50.00     0  01:31      7.39    0.29    0.57
  1570A                CONDUIT     50.00     0  01:31      7.38    0.29    0.54
  1570B                CONDUIT     83.45     0  00:43      7.94    0.48    0.62
  1570C                CONDUIT     71.86     0  00:36      8.38    0.41    0.61
  1570D                CONDUIT     62.82     0  03:01      7.56    0.36    0.59
  1570E                CONDUIT      5.39     0  00:31      4.14    0.03    0.36
  1600                 CONDUIT     85.26     0  01:29      3.32    1.86    0.85
  1600A                CONDUIT     51.25     0  03:00      2.42    1.12    0.70
  1600B                CONDUIT     51.89     0  03:00      2.31    1.13    0.74
  1600C                CONDUIT     64.20     0  03:00      2.69    1.40    0.79
  1600D                CONDUIT     72.04     0  03:01      2.93    1.57    0.81
  1600E                CONDUIT     57.50     0  03:00      3.02    1.25    0.67
  1602                 CONDUIT     85.81     0  01:06      4.37    1.39    1.00
  1602A                CONDUIT     54.26     0  00:39      3.78    0.88    0.80
  1602B                CONDUIT     52.30     0  00:48      3.62    0.85    0.82
  1602C                CONDUIT     65.93     0  00:54      3.87    1.07    0.96
  1602D                CONDUIT     72.55     0  00:47      4.00    1.17    1.00
  1602E                CONDUIT     61.02     0  00:49      3.77    0.99    0.85
  1630                 CONDUIT    134.98     0  03:00      3.90    0.15    0.38
  1630A                CONDUIT    101.22     0  03:01      5.07    0.12    0.34
  1630B                CONDUIT    134.97     0  03:00      3.68    0.15    0.39
  1630C                CONDUIT    134.98     0  03:00      3.90    0.15    0.38
  1630D                CONDUIT    134.79     0  03:03      3.89    0.15    0.38
  1630E                CONDUIT     62.48     0  03:01      3.05    0.07    0.29
  8040                 CONDUIT     46.89     0  03:07      6.83    0.77    1.00
  8040A                CONDUIT     11.74     0  00:45      5.28    0.19    0.30
  8040B                CONDUIT     46.97     0  00:34      6.90    0.77    0.71
  8040C                CONDUIT     46.91     0  00:28      6.83    0.77    0.73
  8040D                CONDUIT     46.38     0  00:31      6.90    0.76    0.82
  8040E                CONDUIT     23.68     0  00:32      5.86    0.39    0.47
  8060                 CONDUIT     48.79     0  03:11      4.03    1.01    1.00
  8060B                CONDUIT     39.34     0  03:00      4.77    0.81    0.62
  8060C                CONDUIT     45.19     0  01:17      4.74    0.93    0.72
  8060D                CONDUIT     38.62     0  00:54      4.02    0.80    1.00
  8060E                CONDUIT     22.54     0  01:43      4.00    0.46    0.49
  8100                 CONDUIT     50.42     0  00:19      7.61    0.44    0.54
  8100A                CONDUIT     50.42     0  00:19      7.61    0.44    0.54
  8100B                CONDUIT     50.87     0  00:19      7.75    0.45    0.54
  8100C                CONDUIT     50.39     0  00:19      7.61    0.44    0.52
  8100D                CONDUIT     50.13     0  00:18      7.57    0.44    0.59
  8130                 CONDUIT     50.00     0  01:19      6.49    0.61    0.53
  8130A                CONDUIT     50.00     0  01:19      6.49    0.61    0.53
  8130B                CONDUIT     55.66     0  03:00      5.58    0.68    0.60
  8130C                CONDUIT     50.17     0  01:17      6.40    0.61    0.56
  8130D                CONDUIT     62.83     0  03:00      6.59    0.77    0.61
  8130E                CONDUIT      0.00     0  00:00      0.00    0.00    0.07
  PUMP1@82309E-15009E  PUMP         5.00     0  00:02              0.25
  OR1@82309B-15009B    ORIFICE     30.10     0  00:36                          
  OR1@82309D-82308D    ORIFICE      9.05     0  03:30                      1.00
  ORI-11               ORIFICE      5.95     0  03:15                      1.00
  WEIR-11              WEIR        12.84     0  03:00                      1.00
  WEIR1@82309C-15009C  WEIR        20.83     0  01:39                      0.27
  8100E                DUMMY        0.00     0  00:00
  HIGHFLOW             DUMMY       11.25     0  03:00
  LOWFLOW              DUMMY        0.06     0  00:11
  
  
  ***************************
  Flow Classification Summary
  ***************************
  
  -------------------------------------------------------------------------------------
                      Adjusted    ---------- Fraction of Time in Flow Class ---------- 
                       /Actual         Up    Down  Sub   Sup   Up    Down  Norm  Inlet 
  Conduit               Length    Dry  Dry   Dry   Crit  Crit  Crit  Crit  Ltd   Ctrl  
  -------------------------------------------------------------------------------------
  1030                    1.00   0.04  0.00  0.00  0.42  0.53  0.00  0.00  0.16  0.00
  1030A                   1.00   0.00  0.06  0.00  0.94  0.00  0.00  0.00  0.94  0.00
  1030B                   1.00   0.02  0.00  0.00  0.98  0.00  0.00  0.00  0.00  0.00
  1030C                   1.00   0.04  0.00  0.00  0.42  0.53  0.00  0.00  0.17  0.00
  1030D                   1.00   0.04  0.00  0.00  0.42  0.54  0.00  0.00  0.25  0.00
  1030E                   1.00   0.02  0.00  0.00  0.57  0.41  0.00  0.00  0.15  0.00
  1570                    1.00   0.00  0.00  0.00  0.93  0.07  0.00  0.00  0.90  0.00
  1570A                   1.00   0.00  0.00  0.00  0.93  0.07  0.00  0.00  0.90  0.00
  1570B                   1.00   0.00  0.00  0.00  0.92  0.07  0.00  0.00  0.91  0.00
  1570C                   1.00   0.00  0.00  0.00  0.93  0.07  0.00  0.00  0.90  0.00
  1570D                   1.00   0.00  0.00  0.00  0.93  0.07  0.00  0.00  0.90  0.00
  1570E                   1.00   0.00  0.00  0.00  0.93  0.07  0.00  0.00  0.91  0.00
  1600                    1.00   0.00  0.00  0.00  1.00  0.00  0.00  0.00  0.09  0.00
  1600A                   1.00   0.00  0.00  0.00  1.00  0.00  0.00  0.00  0.13  0.00
  1600B                   1.00   0.00  0.00  0.00  1.00  0.00  0.00  0.00  0.17  0.00
  1600C                   1.00   0.00  0.00  0.00  1.00  0.00  0.00  0.00  0.09  0.00
  1600D                   1.00   0.00  0.00  0.00  1.00  0.00  0.00  0.00  0.07  0.00
  1600E                   1.00   0.00  0.01  0.00  0.99  0.00  0.00  0.00  0.13  0.00
  1602                    1.00   0.00  0.00  0.00  1.00  0.00  0.00  0.00  0.44  0.00
  1602A                   1.00   0.00  0.00  0.00  1.00  0.00  0.00  0.00  0.87  0.00
  1602B                   1.00   0.00  0.00  0.00  1.00  0.00  0.00  0.00  0.87  0.00
  1602C                   1.00   0.00  0.00  0.00  1.00  0.00  0.00  0.00  0.49  0.00
  1602D                   1.00   0.00  0.00  0.00  1.00  0.00  0.00  0.00  0.44  0.00
  1602E                   1.00   0.01  0.00  0.00  0.99  0.00  0.00  0.00  0.86  0.00
  1630                    1.00   0.01  0.00  0.00  0.99  0.00  0.00  0.00  0.00  0.00
  1630A                   1.00   0.01  0.00  0.00  0.99  0.00  0.00  0.00  0.00  0.00
  1630B                   1.00   0.00  0.00  0.00  1.00  0.00  0.00  0.00  0.00  0.00
  1630C                   1.00   0.01  0.00  0.00  0.99  0.00  0.00  0.00  0.00  0.00
  1630D                   1.00   0.01  0.00  0.00  0.99  0.00  0.00  0.00  0.00  0.00
  1630E                   1.00   0.00  0.00  0.00  1.00  0.00  0.00  0.00  0.00  0.00
  8040                    1.00   0.00  0.00  0.00  0.96  0.04  0.00  0.00  0.55  0.00
  8040A                   1.00   0.00  0.00  0.00  0.75  0.25  0.00  0.00  0.41  0.00
  8040B                   1.00   0.00  0.00  0.00  0.96  0.04  0.00  0.00  0.91  0.00
  8040C                   1.00   0.00  0.00  0.00  0.96  0.04  0.00  0.00  0.92  0.00
  8040D                   1.00   0.00  0.00  0.00  0.96  0.04  0.00  0.00  0.90  0.00
  8040E                   1.00   0.00  0.00  0.00  0.95  0.05  0.00  0.00  0.91  0.00
  8060                    1.00   0.00  0.00  0.00  0.53  0.00  0.00  0.47  0.06  0.00
  8060B                   1.00   0.00  0.00  0.00  0.00  0.00  0.00  1.00  0.00  0.00
  8060C                   1.00   0.00  0.00  0.00  0.48  0.00  0.00  0.51  0.00  0.00
  8060D                   1.00   0.00  0.00  0.00  0.53  0.00  0.00  0.47  0.11  0.00
  8060E                   1.00   0.00  0.00  0.00  0.48  0.00  0.00  0.52  0.08  0.00
  8100                    1.00   0.00  0.00  0.00  0.95  0.05  0.00  0.00  0.95  0.00
  8100A                   1.00   0.00  0.00  0.00  0.95  0.05  0.00  0.00  0.95  0.00
  8100B                   1.00   0.00  0.00  0.00  0.95  0.05  0.00  0.00  0.94  0.00
  8100C                   1.00   0.00  0.00  0.00  0.95  0.05  0.00  0.00  0.95  0.00
  8100D                   1.00   0.00  0.00  0.00  0.95  0.05  0.00  0.00  0.95  0.00
  8130                    1.00   0.00  0.00  0.00  0.96  0.04  0.00  0.00  0.45  0.00
  8130A                   1.00   0.00  0.00  0.00  0.96  0.04  0.00  0.00  0.45  0.00
  8130B                   1.00   0.00  0.00  0.00  1.00  0.00  0.00  0.00  0.55  0.00
  8130C                   1.00   0.00  0.00  0.00  0.96  0.04  0.00  0.00  0.47  0.00
  8130D                   1.00   0.00  0.00  0.00  0.96  0.04  0.00  0.00  0.44  0.00
  8130E                   1.00   0.00  1.00  0.00  0.00  0.00  0.00  0.00  0.00  0.00
  
  
  *************************
  Conduit Surcharge Summary
  *************************
  
  ----------------------------------------------------------------------------
                                                           Hours        Hours 
                         --------- Hours Full --------   Above Full   Capacity
  Conduit                Both Ends  Upstream  Dnstream   Normal Flow   Limited
  ----------------------------------------------------------------------------
  1600                        0.01      1.61      0.01      2.83         0.01
  1600A                       0.01      0.01      0.01      2.09         0.01
  1600B                       0.01      0.01      0.01      2.05         0.01
  1600C                       0.01      0.01      0.01      2.57         0.01
  1600D                       0.01      0.01      0.01      2.80         0.01
  1600E                       0.01      0.01      0.01      2.36         0.01
  1602                        2.39      2.85      2.50      2.84         2.36
  1602C                       0.01      0.01      2.09      2.52         0.01
  1602D                       2.31      2.82      2.42      2.84         2.29
  8040                        1.95      1.95      2.27      0.01         0.01
  8040D                       0.01      0.01      1.27      0.01         0.01
  8060                        2.27      2.27      2.54      0.02         0.01
  8060D                       1.27      1.27      2.43      0.01         0.01
  
  
  ***************
  Pumping Summary
  ***************
  
  ---------------------------------------------------------------------------------------------------------
                                                  Min       Avg       Max     Total     Power    % Time Off
                        Percent   Number of      Flow      Flow      Flow    Volume     Usage    Pump Curve
  Pump                 Utilized   Start-Ups       CFS       CFS       CFS  10^6 gal     Kw-hr    Low   High
  ---------------------------------------------------------------------------------------------------------
  PUMP1@82309E-15009E    100.00           1      0.00      3.51      5.00     0.567      5.53    0.0  100.0
  

  Analysis begun on:  Wed Jan 02 04:51:13 2019
  Analysis ended on:  Wed Jan 02 04:51:14 2019
  Total elapsed time: 00:00:01