
  EPA STORM WATER MANAGEMENT MODEL - VERSION 5.1 (Build 5.1.012)
  --------------------------------------------------------------

  Scenario Run :  BASE 
   SW 1 0 20 
  
  
  *************
  Element Count
  *************
  Number of rain gages ...... 0
  Number of subcatchments ... 0
  Number of nodes ........... 10
  Number of links ........... 9
  Number of pollutants ...... 0
  Number of land uses ....... 0
  
  
  ************
  Node Summary
  ************
                                           Invert      Max.    Ponded    External
  Name                 Type                 Elev.     Depth      Area    Inflow  
  -------------------------------------------------------------------------------
  10309                JUNCTION          10160.00      9.40       0.0
  15009                JUNCTION          11150.00     13.50       0.0
  16009                JUNCTION          10200.00     18.00       0.0
  16109                JUNCTION          10280.00     22.20       0.0
  80408                JUNCTION          12460.00     13.40       0.0    Yes
  80608                JUNCTION          11830.00     16.70       0.0
  81009                JUNCTION          12820.00      8.80       0.0    Yes
  81309                JUNCTION          11750.00     12.50       0.0
  82309                JUNCTION          11230.00     42.70       0.0    Yes
  10208                OUTFALL           10150.00      9.00       0.0
  
  
  ************
  Link Summary
  ************
  Name             From Node        To Node          Type            Length    %Slope Roughness
  ---------------------------------------------------------------------------------------------
  1030             10309            10208            CONDUIT         4500.0    0.2222    0.0160
  1570             15009            16009            CONDUIT         5000.0   19.3525    0.0154
  1600             16009            16109            CONDUIT          500.0  -16.2088    0.0150
  1602             82309            16109            CONDUIT         5000.0   19.3525    0.0340
  1630             16009            10309            CONDUIT          300.0   13.4535    0.0150
  8040             80408            80608            CONDUIT         1800.0   37.3632    0.0150
  8060             80608            82309            CONDUIT         2075.0   30.0852    0.0150
  8100             81009            81309            CONDUIT         5100.0   21.4580    0.0150
  8130             81309            15009            CONDUIT         3500.0   17.4004    0.0150
  
  
  *********************
  Cross Section Summary
  *********************
                                        Full     Full     Hyd.     Max.   No. of     Full
  Conduit          Shape               Depth     Area     Rad.    Width  Barrels     Flow
  ---------------------------------------------------------------------------------------
  1030             TRIANGULAR           9.00   243.00     4.27    54.00        1  2799.77
  1570             CIRCULAR             5.50    23.76     1.38     5.50        1  1247.05
  1600             CIRCULAR             6.00    28.27     1.50     6.00        1  1477.71
  1602             CIRCULAR             5.00    19.63     1.25     5.00        1   438.07
  1630             TRIANGULAR           9.00   243.00     4.27    54.00        1 23236.64
  8040             CIRCULAR             4.00    12.57     1.00     4.00        1   760.96
  8060             CIRCULAR             4.00    12.57     1.00     4.00        1   682.83
  8100             CIRCULAR             4.50    15.90     1.13     4.50        1   789.48
  8130             CIRCULAR             4.50    15.90     1.13     4.50        1   710.93
  
  
  
  *********************************************************
  NOTE: The summary statistics displayed in this report are
  based on results found at every computational time step,  
  not just on results from each reporting time step.
  *********************************************************
  
  ****************
  Analysis Options
  ****************
  Flow Units ............... CFS
  Process Models:
    Rainfall/Runoff ........ NO
    RDII ................... NO
    Snowmelt ............... NO
    Groundwater ............ NO
    Flow Routing ........... YES
    Ponding Allowed ........ NO
    Water Quality .......... NO
  Flow Routing Method ...... DYNWAVE
  Starting Date ............ 02/22/2002 00:00:00
  Ending Date .............. 02/24/2002 00:00:00
  Antecedent Dry Days ...... 0.0
  Report Time Step ......... 00:01:40
  Routing Time Step ........ 30.00 sec
  Variable Time Step ....... YES
  Maximum Trials ........... 4
  Number of Threads ........ 1
  Head Tolerance ........... 0.005000 ft
  
  
  **************************        Volume        Volume
  Flow Routing Continuity        acre-feet      10^6 gal
  **************************     ---------     ---------
  Dry Weather Inflow .......       509.053       165.883
  Wet Weather Inflow .......         0.000         0.000
  Groundwater Inflow .......         0.000         0.000
  RDII Inflow ..............         0.000         0.000
  External Inflow ..........         0.000         0.000
  External Outflow .........       507.037       165.225
  Flooding Loss ............         0.000         0.000
  Evaporation Loss .........         0.029         0.010
  Exfiltration Loss ........         0.000         0.000
  Initial Stored Volume ....         0.000         0.000
  Final Stored Volume ......         2.779         0.906
  Continuity Error (%) .....        -0.156
  
  
  ***************************
  Time-Step Critical Elements
  ***************************
  Link 1600 (74.06%)
  
  
  ********************************
  Highest Flow Instability Indexes
  ********************************
  Link 8040 (1)
  
  
  *************************
  Routing Time Step Summary
  *************************
  Minimum Time Step           :     9.02 sec
  Average Time Step           :    17.04 sec
  Maximum Time Step           :    30.00 sec
  Percent in Steady State     :     0.00
  Average Iterations per Step :     2.00
  Percent Not Converging      :     0.03
  
  
  ******************
  Node Depth Summary
  ******************
  
  ---------------------------------------------------------------------------------
                                 Average  Maximum  Maximum  Time of Max    Reported
                                   Depth    Depth      HGL   Occurrence   Max Depth
  Node                 Type         Feet     Feet     Feet  days hr:min        Feet
  ---------------------------------------------------------------------------------
  10309                JUNCTION     3.02     3.50  10163.50     0  11:00        3.50
  15009                JUNCTION     0.75     0.91  11150.91     1  10:15        0.91
  16009                JUNCTION     1.32     1.54  10201.54     1  10:16        1.54
  16109                JUNCTION     1.01     1.23  10281.23     1  10:51        1.23
  80408                JUNCTION     0.63     0.77  12460.77     1  10:01        0.77
  80608                JUNCTION     0.67     0.81  11830.81     0  10:24        0.81
  81009                JUNCTION     0.77     0.94  12820.94     0  10:50        0.94
  81309                JUNCTION     0.83     1.01  11751.01     1  10:08        1.01
  82309                JUNCTION     1.69     2.09  11232.09     0  10:31        2.09
  10208                OUTFALL      2.67     3.14  10153.14     0  11:00        3.14
  
  
  *******************
  Node Inflow Summary
  *******************
  
  -------------------------------------------------------------------------------------------------
                                  Maximum  Maximum                  Lateral       Total        Flow
                                  Lateral    Total  Time of Max      Inflow      Inflow     Balance
                                   Inflow   Inflow   Occurrence      Volume      Volume       Error
  Node                 Type           CFS      CFS  days hr:min    10^6 gal    10^6 gal     Percent
  -------------------------------------------------------------------------------------------------
  10309                JUNCTION      0.00   210.00     0  10:16           0         166       0.196
  15009                JUNCTION      0.00    75.02     0  10:10           0        59.2       0.078
  16009                JUNCTION      0.00   210.00     0  10:15           0         166       0.042
  16109                JUNCTION      0.00   135.00     0  10:35           0         107       0.000
  80408                JUNCTION     60.00    60.00     0  10:00        47.4        47.4       0.009
  80608                JUNCTION      0.00    60.11     0  10:01           0        47.4       0.049
  81009                JUNCTION     75.00    75.00     0  10:00        59.2        59.2       0.034
  81309                JUNCTION      0.00    75.00     0  10:23           0        59.2       0.077
  82309                JUNCTION     75.00   135.00     0  10:23        59.2         107       0.063
  10208                OUTFALL       0.00   209.99     0  11:00           0         165       0.000
  
  
  **********************
  Node Surcharge Summary
  **********************
  
  No nodes were surcharged.
  
  
  *********************
  Node Flooding Summary
  *********************
  
  No nodes were flooded.
  
  
  ***********************
  Outfall Loading Summary
  ***********************
  
  -----------------------------------------------------------
                         Flow       Avg       Max       Total
                         Freq      Flow      Flow      Volume
  Outfall Node           Pcnt       CFS       CFS    10^6 gal
  -----------------------------------------------------------
  10208                 99.89    144.94    209.99     165.213
  -----------------------------------------------------------
  System                99.89    144.94    209.99     165.213
  
  
  ********************
  Link Flow Summary
  ********************
  
  -----------------------------------------------------------------------------
                                 Maximum  Time of Max   Maximum    Max/    Max/
                                  |Flow|   Occurrence   |Veloc|    Full    Full
  Link                 Type          CFS  days hr:min    ft/sec    Flow   Depth
  -----------------------------------------------------------------------------
  1030                 CONDUIT    209.99     0  11:00      6.36    0.08    0.37
  1570                 CONDUIT     75.01     0  10:15     18.96    0.06    0.22
  1600                 CONDUIT    135.00     0  10:33     27.39    0.09    0.23
  1602                 CONDUIT    135.00     0  10:35     23.73    0.31    0.33
  1630                 CONDUIT    210.00     0  10:16     21.65    0.01    0.28
  8040                 CONDUIT     60.11     0  10:01     35.89    0.08    0.20
  8060                 CONDUIT     60.00     0  10:23     33.15    0.09    0.20
  8100                 CONDUIT     75.00     0  10:23     29.88    0.09    0.22
  8130                 CONDUIT     75.02     0  10:10     30.17    0.11    0.21
  
  
  ***************************
  Flow Classification Summary
  ***************************
  
  -------------------------------------------------------------------------------------
                      Adjusted    ---------- Fraction of Time in Flow Class ---------- 
                       /Actual         Up    Down  Sub   Sup   Up    Down  Norm  Inlet 
  Conduit               Length    Dry  Dry   Dry   Crit  Crit  Crit  Crit  Ltd   Ctrl  
  -------------------------------------------------------------------------------------
  1030                    1.00   0.00  0.00  0.00  1.00  0.00  0.00  0.00  0.00  0.00
  1570                    1.00   0.00  0.00  0.00  0.00  1.00  0.00  0.00  1.00  0.00
  1600                    1.00   0.00  0.00  0.00  0.00  1.00  0.00  0.00  1.00  0.00
  1602                    1.00   0.00  0.00  0.00  0.00  1.00  0.00  0.00  0.00  0.00
  1630                    1.00   0.00  0.00  0.00  0.00  1.00  0.00  0.00  1.00  0.00
  8040                    1.00   0.00  0.00  0.00  0.00  1.00  0.00  0.00  0.02  0.00
  8060                    1.00   0.00  0.00  0.00  0.00  0.00  0.00  1.00  0.00  0.00
  8100                    1.00   0.00  0.00  0.00  0.00  1.00  0.00  0.00  1.00  0.00
  8130                    1.00   0.00  0.00  0.00  0.00  1.00  0.00  0.00  0.00  0.00
  
  
  *************************
  Conduit Surcharge Summary
  *************************
  
  No conduits were surcharged.
  

  Analysis begun on:  Wed Jan 02 04:51:13 2019
  Analysis ended on:  Wed Jan 02 04:51:13 2019
  Total elapsed time: < 1 sec