
  EPA STORM WATER MANAGEMENT MODEL - VERSION 5.1 (Build 5.1.012)
  --------------------------------------------------------------

  HRSD Test model This simulates a pressure control valve. No pump stations. 
  
  WARNING 04: minimum elevation drop used for Conduit 1
  WARNING 04: minimum elevation drop used for Conduit 2
  WARNING 04: minimum elevation drop used for Conduit 3
  WARNING 04: minimum elevation drop used for Conduit 4
  WARNING 04: minimum elevation drop used for Conduit 5
  WARNING 04: minimum elevation drop used for Conduit 6
  WARNING 04: minimum elevation drop used for Conduit 7
  WARNING 04: minimum elevation drop used for Conduit 8
  WARNING 04: minimum elevation drop used for Conduit 9
  WARNING 04: minimum elevation drop used for Conduit 10
  WARNING 04: minimum elevation drop used for Conduit 11
  WARNING 04: minimum elevation drop used for Conduit 12
  WARNING 04: minimum elevation drop used for Conduit 13
  WARNING 04: minimum elevation drop used for Conduit 14
  WARNING 04: minimum elevation drop used for Conduit 15
  WARNING 04: minimum elevation drop used for Conduit 16
  WARNING 04: minimum elevation drop used for Conduit 17
  WARNING 04: minimum elevation drop used for Conduit 18
  WARNING 04: minimum elevation drop used for Conduit 19
  WARNING 04: minimum elevation drop used for Conduit 20
  WARNING 04: minimum elevation drop used for Conduit 21
  WARNING 04: minimum elevation drop used for Conduit 22
  WARNING 04: minimum elevation drop used for Conduit 23
  WARNING 04: minimum elevation drop used for Conduit 24
  WARNING 04: minimum elevation drop used for Conduit 25
  WARNING 04: minimum elevation drop used for Conduit 26
  WARNING 04: minimum elevation drop used for Conduit 27
  WARNING 04: minimum elevation drop used for Conduit 28
  WARNING 04: minimum elevation drop used for Conduit 29
  WARNING 04: minimum elevation drop used for Conduit 30
  WARNING 04: minimum elevation drop used for Conduit 31
  WARNING 04: minimum elevation drop used for Conduit 32
  WARNING 04: minimum elevation drop used for Conduit 33
  WARNING 04: minimum elevation drop used for Conduit 34
  WARNING 04: minimum elevation drop used for Conduit 35
  WARNING 04: minimum elevation drop used for Conduit 36
  WARNING 04: minimum elevation drop used for Conduit 37
  WARNING 04: minimum elevation drop used for Conduit 38
  WARNING 04: minimum elevation drop used for Conduit 39
  WARNING 04: minimum elevation drop used for Conduit 40
  WARNING 04: minimum elevation drop used for Conduit 41
  WARNING 04: minimum elevation drop used for Conduit 42
  WARNING 04: minimum elevation drop used for Conduit 43
  WARNING 04: minimum elevation drop used for Conduit 44
  WARNING 04: minimum elevation drop used for Conduit 45
  WARNING 04: minimum elevation drop used for Conduit 46
  WARNING 04: minimum elevation drop used for Conduit 47
  WARNING 04: minimum elevation drop used for Conduit 48
  WARNING 04: minimum elevation drop used for Conduit 49
  WARNING 04: minimum elevation drop used for Conduit 50
  WARNING 04: minimum elevation drop used for Conduit 51
  WARNING 04: minimum elevation drop used for Conduit 52
  WARNING 04: minimum elevation drop used for Conduit 53
  WARNING 04: minimum elevation drop used for Conduit 54
  WARNING 04: minimum elevation drop used for Conduit 55
  WARNING 04: minimum elevation drop used for Conduit 56
  WARNING 04: minimum elevation drop used for Conduit 57
  WARNING 04: minimum elevation drop used for Conduit 58
  WARNING 04: minimum elevation drop used for Conduit 59
  WARNING 04: minimum elevation drop used for Conduit 60
  WARNING 04: minimum elevation drop used for Conduit 61
  WARNING 04: minimum elevation drop used for Conduit 62
  WARNING 04: minimum elevation drop used for Conduit 63
  WARNING 04: minimum elevation drop used for Conduit 64
  WARNING 04: minimum elevation drop used for Conduit 65
  WARNING 04: minimum elevation drop used for Conduit 66
  WARNING 04: minimum elevation drop used for Conduit 67
  WARNING 04: minimum elevation drop used for Conduit 68
  WARNING 04: minimum elevation drop used for Conduit 69
  WARNING 04: minimum elevation drop used for Conduit 70
  WARNING 04: minimum elevation drop used for Conduit 71
  WARNING 04: minimum elevation drop used for Conduit 72
  WARNING 04: minimum elevation drop used for Conduit 73
  WARNING 04: minimum elevation drop used for Conduit 74
  WARNING 04: minimum elevation drop used for Conduit 75
  WARNING 04: minimum elevation drop used for Conduit 76
  WARNING 04: minimum elevation drop used for Conduit 77
  WARNING 04: minimum elevation drop used for Conduit 78
  WARNING 04: minimum elevation drop used for Conduit 79
  WARNING 04: minimum elevation drop used for Conduit 80
  WARNING 04: minimum elevation drop used for Conduit 82
  WARNING 04: minimum elevation drop used for Conduit 83
  WARNING 04: minimum elevation drop used for Conduit 84
  WARNING 04: minimum elevation drop used for Conduit 85
  WARNING 04: minimum elevation drop used for Conduit 86
  WARNING 04: minimum elevation drop used for Conduit 87
  WARNING 04: minimum elevation drop used for Conduit 88
  WARNING 04: minimum elevation drop used for Conduit 89
  WARNING 04: minimum elevation drop used for Conduit 90
  WARNING 04: minimum elevation drop used for Conduit 91
  WARNING 04: minimum elevation drop used for Conduit 92
  WARNING 04: minimum elevation drop used for Conduit 93
  WARNING 04: minimum elevation drop used for Conduit 94
  WARNING 04: minimum elevation drop used for Conduit 95
  WARNING 04: minimum elevation drop used for Conduit 96
  WARNING 04: minimum elevation drop used for Conduit 97
  WARNING 04: minimum elevation drop used for Conduit 98
  WARNING 04: minimum elevation drop used for Conduit 99
  WARNING 04: minimum elevation drop used for Conduit 100
  WARNING 04: minimum elevation drop used for Conduit 101
  WARNING 04: minimum elevation drop used for Conduit 102
  WARNING 04: minimum elevation drop used for Conduit 103
  WARNING 04: minimum elevation drop used for Conduit 104
  WARNING 04: minimum elevation drop used for Conduit 105
  WARNING 04: minimum elevation drop used for Conduit 106
  WARNING 04: minimum elevation drop used for Conduit 107
  WARNING 04: minimum elevation drop used for Conduit 108
  WARNING 04: minimum elevation drop used for Conduit 109
  WARNING 04: minimum elevation drop used for Conduit 110
  WARNING 04: minimum elevation drop used for Conduit 111
  WARNING 04: minimum elevation drop used for Conduit 112
  WARNING 04: minimum elevation drop used for Conduit 113
  WARNING 04: minimum elevation drop used for Conduit 114
  WARNING 04: minimum elevation drop used for Conduit 115
  WARNING 04: minimum elevation drop used for Conduit 116
  WARNING 04: minimum elevation drop used for Conduit 117
  WARNING 04: minimum elevation drop used for Conduit 118
  WARNING 04: minimum elevation drop used for Conduit 119
  WARNING 04: minimum elevation drop used for Conduit 120
  WARNING 04: minimum elevation drop used for Conduit 121
  WARNING 04: minimum elevation drop used for Conduit 122
  WARNING 04: minimum elevation drop used for Conduit 123
  WARNING 04: minimum elevation drop used for Conduit 124
  WARNING 04: minimum elevation drop used for Conduit 125
  WARNING 04: minimum elevation drop used for Conduit 126
  WARNING 04: minimum elevation drop used for Conduit 127
  WARNING 04: minimum elevation drop used for Conduit 128
  WARNING 04: minimum elevation drop used for Conduit 129
  WARNING 04: minimum elevation drop used for Conduit 130
  WARNING 04: minimum elevation drop used for Conduit 131
  WARNING 04: minimum elevation drop used for Conduit 132
  WARNING 04: minimum elevation drop used for Conduit 133
  WARNING 04: minimum elevation drop used for Conduit 134
  WARNING 04: minimum elevation drop used for Conduit 135
  WARNING 04: minimum elevation drop used for Conduit 136
  WARNING 04: minimum elevation drop used for Conduit 137
  WARNING 04: minimum elevation drop used for Conduit 138
  WARNING 04: minimum elevation drop used for Conduit 139
  WARNING 04: minimum elevation drop used for Conduit 140
  WARNING 04: minimum elevation drop used for Conduit 141
  WARNING 04: minimum elevation drop used for Conduit 142
  WARNING 04: minimum elevation drop used for Conduit 143
  WARNING 04: minimum elevation drop used for Conduit 144
  WARNING 04: minimum elevation drop used for Conduit 145
  WARNING 04: minimum elevation drop used for Conduit 146
  WARNING 04: minimum elevation drop used for Conduit 147
  
  *********************************************************
  NOTE: The summary statistics displayed in this report are
  based on results found at every computational time step,  
  not just on results from each reporting time step.
  *********************************************************
  
  ****************
  Analysis Options
  ****************
  Flow Units ............... CFS
  Process Models:
    Rainfall/Runoff ........ NO
    RDII ................... NO
    Snowmelt ............... NO
    Groundwater ............ NO
    Flow Routing ........... YES
    Ponding Allowed ........ NO
    Water Quality .......... NO
  Flow Routing Method ...... DYNWAVE
  Starting Date ............ 07/01/1999 00:00:00
  Ending Date .............. 07/05/1999 00:00:00
  Antecedent Dry Days ...... 0.0
  Report Time Step ......... 00:00:10
  Routing Time Step ........ 10.00 sec
  Variable Time Step ....... YES
  Maximum Trials ........... 8
  Number of Threads ........ 1
  Head Tolerance ........... 0.005000 ft
  
  
  **************************        Volume        Volume
  Flow Routing Continuity        acre-feet      10^6 gal
  **************************     ---------     ---------
  Dry Weather Inflow .......       179.002        58.330
  Wet Weather Inflow .......         0.000         0.000
  Groundwater Inflow .......         0.000         0.000
  RDII Inflow ..............         0.000         0.000
  External Inflow ..........         0.000         0.000
  External Outflow .........       166.055        54.111
  Flooding Loss ............         0.000         0.000
  Evaporation Loss .........         0.000         0.000
  Exfiltration Loss ........         0.000         0.000
  Initial Stored Volume ....         0.000         0.000
  Final Stored Volume ......        11.961         3.898
  Continuity Error (%) .....         0.551
  
  
  ***************************
  Time-Step Critical Elements
  ***************************
  None
  
  
  ********************************
  Highest Flow Instability Indexes
  ********************************
  Link 231 (95)
  Link 80 (75)
  Link 82 (73)
  Link 79 (72)
  Link 83 (72)
  
  
  *************************
  Routing Time Step Summary
  *************************
  Minimum Time Step           :     1.08 sec
  Average Time Step           :     9.97 sec
  Maximum Time Step           :    10.00 sec
  Percent in Steady State     :    -0.00
  Average Iterations per Step :     5.09
  Percent Not Converging      :    29.91
  
  
  ******************
  Node Depth Summary
  ******************
  
  ---------------------------------------------------------------------------------
                                 Average  Maximum  Maximum  Time of Max    Reported
                                   Depth    Depth      HGL   Occurrence   Max Depth
  Node                 Type         Feet     Feet     Feet  days hr:min        Feet
  ---------------------------------------------------------------------------------
  1                    JUNCTION    77.66   121.22   121.22     1  12:00      121.22
  2                    JUNCTION    77.21   120.41   120.41     1  12:00      120.41
  3                    JUNCTION    76.75   119.60   119.60     1  12:00      119.60
  4                    JUNCTION    76.30   118.79   118.79     1  12:00      118.79
  5                    JUNCTION    75.84   117.99   117.99     1  12:00      117.98
  6                    JUNCTION    75.39   117.20   117.20     1  12:00      117.19
  7                    JUNCTION    74.93   116.40   116.40     1  12:00      116.39
  8                    JUNCTION    74.48   115.60   115.60     1  12:00      115.60
  9                    JUNCTION    74.02   114.82   114.82     1  12:00      114.81
  10                   JUNCTION    73.57   114.03   114.03     1  12:00      114.02
  11                   JUNCTION    73.11   113.23   113.23     1  12:00      113.23
  12                   JUNCTION    72.66   112.45   112.45     1  12:00      112.44
  13                   JUNCTION    72.20   111.66   111.66     1  12:00      111.66
  14                   JUNCTION    71.75   110.87   110.87     1  12:00      110.87
  15                   JUNCTION    71.30   110.10   110.10     1  12:00      110.09
  16                   JUNCTION    70.84   109.31   109.31     1  12:00      109.31
  17                   JUNCTION    70.39   108.54   108.54     1  12:00      108.53
  18                   JUNCTION    69.94   107.76   107.76     1  12:00      107.75
  19                   JUNCTION    69.48   106.99   106.99     1  12:01      106.98
  20                   JUNCTION    69.03   106.21   106.21     1  12:01      106.20
  21                   JUNCTION    68.58   105.45   105.45     1  12:01      105.43
  22                   JUNCTION    68.13   104.70   104.70     1  13:01      104.70
  23                   JUNCTION    67.68   103.97   103.97     1  13:01      103.96
  24                   JUNCTION    67.22   103.23   103.23     1  13:01      103.23
  25                   JUNCTION    66.77   102.50   102.50     1  13:01      102.49
  26                   JUNCTION    66.32   101.76   101.76     1  13:01      101.76
  27                   JUNCTION    65.87   101.03   101.03     1  13:01      101.03
  28                   JUNCTION    65.42   100.30   100.30     1  13:01      100.29
  29                   JUNCTION    64.97    99.57    99.57     1  13:01       99.56
  30                   JUNCTION    64.52    98.83    98.83     1  13:01       98.83
  31                   JUNCTION    64.07    98.10    98.10     1  13:01       98.10
  32                   JUNCTION    63.62    97.37    97.37     1  13:01       97.36
  33                   JUNCTION    63.17    96.64    96.64     1  13:02       96.63
  34                   JUNCTION    62.72    95.90    95.90     1  13:02       95.90
  35                   JUNCTION    62.27    95.17    95.17     1  13:02       95.17
  36                   JUNCTION    61.82    94.44    94.44     1  13:02       94.44
  37                   JUNCTION    61.38    93.71    93.71     1  13:02       93.71
  38                   JUNCTION    60.93    92.98    92.98     1  13:02       92.98
  39                   JUNCTION    60.48    92.25    92.25     1  13:02       92.25
  40                   JUNCTION    60.03    91.52    91.52     1  13:02       91.52
  41                   JUNCTION    59.58    90.79    90.79     1  13:02       90.79
  42                   JUNCTION    59.14    90.06    90.06     1  13:02       90.06
  43                   JUNCTION    58.69    89.33    89.33     1  13:02       89.33
  44                   JUNCTION    58.24    88.60    88.60     1  13:02       88.60
  45                   JUNCTION    57.79    87.87    87.87     1  13:03       87.87
  46                   JUNCTION    57.35    87.14    87.14     1  13:03       87.14
  47                   JUNCTION    56.90    86.42    86.42     1  13:03       86.41
  48                   JUNCTION    56.46    85.70    85.70     1  13:03       85.69
  49                   JUNCTION    56.01    84.97    84.97     1  13:03       84.96
  50                   JUNCTION    55.56    84.23    84.23     1  13:03       84.23
  51                   JUNCTION    55.12    83.52    83.52     1  13:03       83.51
  52                   JUNCTION    54.67    82.79    82.79     1  13:03       82.77
  53                   JUNCTION    54.23    82.05    82.05     1  13:03       82.05
  54                   JUNCTION    53.78    81.33    81.33     1  13:03       81.33
  55                   JUNCTION    53.34    80.59    80.59     1  13:03       80.59
  56                   JUNCTION    52.89    79.89    79.89     1  13:03       79.88
  57                   JUNCTION    52.45    79.15    79.15     1  13:04       79.15
  58                   JUNCTION    52.00    78.43    78.43     1  13:04       78.42
  59                   JUNCTION    51.56    77.72    77.72     1  13:04       77.71
  60                   JUNCTION    51.12    76.98    76.98     1  13:04       76.97
  61                   JUNCTION    50.67    76.24    76.24     1  13:04       76.24
  62                   JUNCTION    50.23    75.54    75.54     1  13:03       75.53
  63                   JUNCTION    49.79    74.80    74.80     1  13:04       74.79
  64                   JUNCTION    49.34    74.06    74.06     1  13:05       74.06
  65                   JUNCTION    48.90    73.34    73.34     1  13:04       73.34
  66                   JUNCTION    48.46    72.61    72.61     1  13:04       72.61
  67                   JUNCTION    48.02    71.90    71.90     1  13:03       71.89
  68                   JUNCTION    47.58    71.16    71.16     1  13:06       71.16
  69                   JUNCTION    47.13    70.44    70.44     1  13:06       70.44
  70                   JUNCTION    46.69    69.72    69.72     1  13:06       69.72
  71                   JUNCTION    46.25    68.99    68.99     1  13:07       68.99
  72                   JUNCTION    45.81    68.27    68.27     1  13:07       68.27
  73                   JUNCTION    45.37    67.55    67.55     1  13:09       67.55
  74                   JUNCTION    44.93    66.83    66.83     1  13:10       66.82
  75                   JUNCTION    44.49    66.10    66.10     1  13:11       66.10
  76                   JUNCTION    44.05    65.38    65.38     1  13:11       65.38
  77                   JUNCTION    43.61    64.67    64.67     1  13:12       64.66
  78                   JUNCTION    43.17    63.95    63.95     1  13:12       63.94
  79                   JUNCTION    42.73    63.23    63.23     1  13:13       63.22
  80                   JUNCTION    42.29    62.51    62.51     1  13:14       62.50
  82                   JUNCTION    40.60    61.15    61.15     1  13:15       61.14
  83                   JUNCTION    40.16    60.43    60.43     1  13:16       60.42
  84                   JUNCTION    39.72    59.71    59.71     1  13:17       59.70
  85                   JUNCTION    39.28    58.99    58.99     1  13:18       58.99
  86                   JUNCTION    38.84    58.27    58.27     1  13:18       58.27
  87                   JUNCTION    38.40    57.55    57.55     1  13:19       57.55
  88                   JUNCTION    37.97    56.83    56.83     1  13:20       56.83
  89                   JUNCTION    37.53    56.11    56.11     1  13:21       56.11
  90                   JUNCTION    37.09    55.40    55.40     1  13:21       55.39
  91                   JUNCTION    36.65    54.68    54.68     1  13:22       54.68
  92                   JUNCTION    36.22    53.96    53.96     1  13:23       53.96
  93                   JUNCTION    35.78    53.24    53.24     1  13:24       53.24
  94                   JUNCTION    35.34    52.52    52.52     1  13:24       52.52
  95                   JUNCTION    34.91    51.81    51.81     1  13:25       51.81
  96                   JUNCTION    34.47    51.09    51.09     1  13:25       51.09
  97                   JUNCTION    34.03    50.37    50.37     1  13:26       50.37
  98                   JUNCTION    33.60    49.65    49.65     1  13:27       49.65
  99                   JUNCTION    33.16    48.94    48.94     1  13:27       48.94
  100                  JUNCTION    32.73    48.22    48.22     1  13:28       48.22
  101                  JUNCTION    32.29    47.50    47.50     1  13:28       47.50
  102                  JUNCTION    31.86    46.79    46.79     1  13:29       46.79
  103                  JUNCTION    31.42    46.07    46.07     1  13:29       46.07
  104                  JUNCTION    30.99    45.35    45.35     1  13:30       45.35
  105                  JUNCTION    30.56    44.64    44.64     1  13:30       44.64
  106                  JUNCTION    30.12    43.92    43.92     1  13:31       43.92
  107                  JUNCTION    29.69    43.20    43.20     1  13:31       43.20
  108                  JUNCTION    29.26    42.49    42.49     1  13:32       42.49
  109                  JUNCTION    28.82    41.77    41.77     1  13:32       41.77
  110                  JUNCTION    28.39    41.05    41.05     1  13:33       41.05
  111                  JUNCTION    27.96    40.34    40.34     1  13:33       40.34
  112                  JUNCTION    27.53    39.62    39.62     1  13:34       39.62
  113                  JUNCTION    27.09    38.90    38.90     1  13:34       38.90
  114                  JUNCTION    26.66    38.19    38.19     1  13:34       38.19
  115                  JUNCTION    26.23    37.47    37.47     1  13:35       37.47
  116                  JUNCTION    25.80    36.75    36.75     1  13:35       36.75
  117                  JUNCTION    25.37    36.04    36.04     1  13:35       36.04
  118                  JUNCTION    24.94    35.32    35.32     1  13:36       35.32
  119                  JUNCTION    24.51    34.61    34.61     1  13:36       34.61
  120                  JUNCTION    24.08    33.89    33.89     1  13:37       33.89
  121                  JUNCTION    23.65    33.17    33.17     1  13:37       33.17
  122                  JUNCTION    23.22    32.46    32.46     1  13:37       32.46
  123                  JUNCTION    22.79    31.74    31.74     1  13:37       31.74
  124                  JUNCTION    22.36    31.02    31.02     1  13:38       31.02
  125                  JUNCTION    21.93    30.31    30.31     1  13:38       30.31
  126                  JUNCTION    21.50    29.59    29.59     1  13:38       29.59
  127                  JUNCTION    21.07    28.88    28.88     1  13:38       28.87
  128                  JUNCTION    20.64    28.16    28.16     1  13:39       28.16
  129                  JUNCTION    20.21    27.44    27.44     1  13:39       27.44
  130                  JUNCTION    19.79    26.73    26.73     1  13:39       26.73
  131                  JUNCTION    19.36    26.02    26.02     1  14:02       26.01
  132                  JUNCTION    18.93    25.29    25.29     1  13:40       25.29
  133                  JUNCTION    18.50    24.58    24.58     1  14:02       24.58
  134                  JUNCTION    18.07    23.88    23.88     1  14:04       23.86
  135                  JUNCTION    17.65    23.14    23.14     1  13:40       23.14
  136                  JUNCTION    17.22    22.43    22.43     1  14:05       22.43
  137                  JUNCTION    16.79    21.73    21.73     1  14:02       21.72
  138                  JUNCTION    16.37    21.01    21.01     1  14:03       21.01
  139                  JUNCTION    15.94    20.30    20.30     1  14:04       20.28
  140                  JUNCTION    15.52    19.59    19.59     1  14:04       19.58
  141                  JUNCTION    15.09    18.86    18.86     1  14:03       18.86
  142                  JUNCTION    14.66    18.15    18.15     1  14:03       18.15
  143                  JUNCTION    14.24    17.44    17.44     1  14:01       17.43
  144                  JUNCTION    13.81    16.72    16.72     1  14:06       16.71
  145                  JUNCTION    13.39    16.01    16.01     1  14:03       16.00
  146                  JUNCTION    12.97    15.29    15.29     1  14:04       15.29
  147                  JUNCTION    12.54    14.59    14.59     1  14:03       14.58
  148                  JUNCTION    12.12    13.86    13.86     1  14:13       13.85
  149                  JUNCTION     7.12     8.12    13.12     1  13:43        8.12
  231                  JUNCTION    41.85    61.79    61.79     1  13:14       61.78
  150                  OUTFALL      1.40     1.76    11.76     1  13:43        1.76
  
  
  *******************
  Node Inflow Summary
  *******************
  
  -------------------------------------------------------------------------------------------------
                                  Maximum  Maximum                  Lateral       Total        Flow
                                  Lateral    Total  Time of Max      Inflow      Inflow     Balance
                                   Inflow   Inflow   Occurrence      Volume      Volume       Error
  Node                 Type           CFS      CFS  days hr:min    10^6 gal    10^6 gal     Percent
  -------------------------------------------------------------------------------------------------
  1                    JUNCTION     31.50    31.50     0  11:00        58.3        58.3       0.024
  2                    JUNCTION      0.00    77.77     0  00:00           0        58.3       0.049
  3                    JUNCTION      0.00    31.45     0  11:35           0        58.3       0.049
  4                    JUNCTION      0.00    31.42     1  12:00           0        58.3       0.049
  5                    JUNCTION      0.00    31.39     1  12:00           0        58.2       0.049
  6                    JUNCTION      0.00    31.36     1  12:00           0        58.2       0.049
  7                    JUNCTION      0.00    31.33     1  12:00           0        58.2       0.049
  8                    JUNCTION      0.00    31.30     1  12:00           0        58.1       0.049
  9                    JUNCTION      0.00    31.28     1  12:00           0        58.1       0.049
  10                   JUNCTION      0.00    31.25     1  12:00           0        58.1       0.049
  11                   JUNCTION      0.00    31.22     1  12:00           0        58.1       0.049
  12                   JUNCTION      0.00    31.19     1  12:00           0          58       0.049
  13                   JUNCTION      0.00    31.16     1  12:00           0          58       0.049
  14                   JUNCTION      0.00    31.13     1  12:00           0          58       0.049
  15                   JUNCTION      0.00    31.11     1  12:00           0        57.9       0.049
  16                   JUNCTION      0.00    31.08     1  12:00           0        57.9       0.049
  17                   JUNCTION      0.00    31.05     1  12:00           0        57.9       0.049
  18                   JUNCTION      0.00    31.02     1  12:00           0        57.9       0.049
  19                   JUNCTION      0.00    31.00     1  12:00           0        57.8       0.049
  20                   JUNCTION      0.00    30.97     1  12:01           0        57.8       0.049
  21                   JUNCTION      0.00    30.94     1  12:01           0        57.8       0.050
  22                   JUNCTION      0.00    30.91     1  12:01           0        57.7       0.049
  23                   JUNCTION      0.00    30.89     1  12:01           0        57.7       0.049
  24                   JUNCTION      0.00    30.86     1  12:01           0        57.7       0.050
  25                   JUNCTION      0.00    30.83     1  12:01           0        57.7       0.050
  26                   JUNCTION      0.00    30.81     1  12:01           0        57.6       0.049
  27                   JUNCTION      0.00    30.78     1  12:01           0        57.6       0.050
  28                   JUNCTION      0.00    30.75     1  12:01           0        57.6       0.050
  29                   JUNCTION      0.00    30.73     1  12:01           0        57.5       0.049
  30                   JUNCTION      0.00    30.70     1  12:01           0        57.5       0.050
  31                   JUNCTION      0.00    30.68     1  12:01           0        57.5       0.050
  32                   JUNCTION      0.00    30.65     1  12:02           0        57.5       0.049
  33                   JUNCTION      0.00    30.63     1  12:02           0        57.4       0.050
  34                   JUNCTION      0.00    30.60     1  12:02           0        57.4       0.050
  35                   JUNCTION      0.00    30.58     1  12:02           0        57.4       0.050
  36                   JUNCTION      0.00    30.55     1  12:02           0        57.3       0.050
  37                   JUNCTION      0.00    30.53     1  12:02           0        57.3       0.050
  38                   JUNCTION      0.00    30.50     1  12:02           0        57.3       0.050
  39                   JUNCTION      0.00    30.48     1  12:02           0        57.3       0.050
  40                   JUNCTION      0.00    30.45     1  12:02           0        57.2       0.050
  41                   JUNCTION      0.00    30.43     1  12:02           0        57.2       0.050
  42                   JUNCTION      0.00    30.41     1  12:02           0        57.2       0.050
  43                   JUNCTION      0.00    30.38     1  12:03           0        57.1       0.051
  44                   JUNCTION      0.00    30.36     1  12:03           0        57.1       0.050
  45                   JUNCTION      0.00    30.33     1  12:03           0        57.1       0.051
  46                   JUNCTION      0.00    30.31     1  12:03           0        57.1       0.051
  47                   JUNCTION      0.00    30.29     1  12:03           0          57       0.050
  48                   JUNCTION      0.00    30.27     1  12:03           0          57       0.051
  49                   JUNCTION      0.00    30.24     1  12:03           0          57       0.051
  50                   JUNCTION      0.00    30.22     1  12:03           0        56.9       0.051
  51                   JUNCTION      0.00    30.20     1  12:03           0        56.9       0.051
  52                   JUNCTION      0.00    30.18     1  12:03           0        56.9       0.051
  53                   JUNCTION      0.00    30.16     1  12:03           0        56.9       0.051
  54                   JUNCTION      0.00    30.14     1  12:03           0        56.8       0.052
  55                   JUNCTION      0.00    30.12     1  12:03           0        56.8       0.051
  56                   JUNCTION      0.00    30.10     1  12:04           0        56.8       0.051
  57                   JUNCTION      0.00    30.08     1  12:04           0        56.7       0.051
  58                   JUNCTION      0.00    30.06     1  12:04           0        56.7       0.051
  59                   JUNCTION      0.00    30.05     1  12:04           0        56.7       0.052
  60                   JUNCTION      0.00    30.01     1  12:04           0        56.6       0.051
  61                   JUNCTION      0.00    30.00     1  12:04           0        56.6       0.051
  62                   JUNCTION      0.00    29.97     1  12:04           0        56.6       0.052
  63                   JUNCTION      0.00    29.96     1  12:05           0        56.6       0.052
  64                   JUNCTION      0.00    29.94     1  12:04           0        56.5       0.051
  65                   JUNCTION      0.00    29.92     1  12:05           0        56.5       0.052
  66                   JUNCTION      0.00    29.90     1  12:04           0        56.5       0.051
  67                   JUNCTION      0.00    29.88     1  12:06           0        56.4       0.052
  68                   JUNCTION      0.00    29.86     1  12:04           0        56.4       0.052
  69                   JUNCTION      0.00    29.84     1  12:05           0        56.4       0.052
  70                   JUNCTION      0.00    29.83     1  12:05           0        56.4       0.052
  71                   JUNCTION      0.00    29.80     1  12:05           0        56.3       0.052
  72                   JUNCTION      0.00    29.79     1  12:05           0        56.3       0.052
  73                   JUNCTION      0.00    29.78     1  12:06           0        56.3       0.052
  74                   JUNCTION      0.00    29.77     1  12:06           0        56.2       0.052
  75                   JUNCTION      0.00    29.74     1  12:06           0        56.2       0.053
  76                   JUNCTION      0.00    29.76     1  12:06           0        56.2       0.051
  77                   JUNCTION      0.00    29.72     1  12:06           0        56.2       0.051
  78                   JUNCTION      0.00    29.70     1  12:06           0        56.1       0.054
  79                   JUNCTION      0.00    29.67     1  12:06           0        56.1       0.058
  80                   JUNCTION      0.00    29.67     1  12:06           0        56.1       0.048
  82                   JUNCTION      0.00    29.65     1  13:01           0          56      -0.018
  83                   JUNCTION      0.00    29.62     1  13:03           0          56       0.060
  84                   JUNCTION      0.00    29.60     1  13:03           0          56       0.047
  85                   JUNCTION      0.00    29.56     1  13:03           0        55.9       0.050
  86                   JUNCTION      0.00    29.57     1  13:03           0        55.9       0.052
  87                   JUNCTION      0.00    29.56     1  13:03           0        55.9       0.053
  88                   JUNCTION      0.00    29.54     1  13:03           0        55.9       0.051
  89                   JUNCTION      0.00    29.55     1  13:03           0        55.8       0.051
  90                   JUNCTION      0.00    29.54     1  13:03           0        55.8       0.051
  91                   JUNCTION      0.00    29.55     1  13:03           0        55.8       0.051
  92                   JUNCTION      0.00    29.53     1  13:03           0        55.7       0.052
  93                   JUNCTION      0.00    29.52     1  13:02           0        55.7       0.052
  94                   JUNCTION      0.00    29.51     1  13:03           0        55.7       0.051
  95                   JUNCTION      0.00    29.52     1  13:04           0        55.7       0.052
  96                   JUNCTION      0.00    29.50     1  13:11           0        55.6       0.051
  97                   JUNCTION      0.00    29.50     1  13:03           0        55.6       0.052
  98                   JUNCTION      0.00    29.49     1  13:04           0        55.6       0.051
  99                   JUNCTION      0.00    29.50     1  13:04           0        55.5       0.052
  100                  JUNCTION      0.00    29.49     1  13:04           0        55.5       0.052
  101                  JUNCTION      0.00    29.49     1  13:04           0        55.5       0.051
  102                  JUNCTION      0.00    29.49     1  13:04           0        55.5       0.052
  103                  JUNCTION      0.00    29.48     1  13:13           0        55.4       0.052
  104                  JUNCTION      0.00    29.48     1  13:04           0        55.4       0.052
  105                  JUNCTION      0.00    29.47     1  13:14           0        55.4       0.051
  106                  JUNCTION      0.00    29.47     1  13:04           0        55.3       0.052
  107                  JUNCTION      0.00    29.47     1  13:15           0        55.3       0.052
  108                  JUNCTION      0.00    29.47     1  13:03           0        55.3       0.051
  109                  JUNCTION      0.00    29.46     1  13:04           0        55.3       0.052
  110                  JUNCTION      0.00    29.46     1  13:18           0        55.2       0.052
  111                  JUNCTION      0.00    29.46     1  13:18           0        55.2       0.052
  112                  JUNCTION      0.00    29.46     1  13:19           0        55.2       0.052
  113                  JUNCTION      0.00    29.45     1  13:20           0        55.1       0.052
  114                  JUNCTION      0.00    29.45     1  13:21           0        55.1       0.051
  115                  JUNCTION      0.00    29.45     1  13:22           0        55.1       0.051
  116                  JUNCTION      0.00    29.45     1  13:23           0        55.1       0.052
  117                  JUNCTION      0.00    29.45     1  13:24           0          55       0.052
  118                  JUNCTION      0.00    29.45     1  13:25           0          55       0.051
  119                  JUNCTION      0.00    29.45     1  13:26           0          55       0.051
  120                  JUNCTION      0.00    29.44     1  13:27           0        54.9       0.052
  121                  JUNCTION      0.00    29.44     1  13:28           0        54.9       0.051
  122                  JUNCTION      0.00    29.44     1  13:29           0        54.9       0.051
  123                  JUNCTION      0.00    29.44     1  13:30           0        54.9       0.052
  124                  JUNCTION      0.00    29.44     1  13:30           0        54.8       0.051
  125                  JUNCTION      0.00    29.44     1  13:31           0        54.8       0.051
  126                  JUNCTION      0.00    29.44     1  13:32           0        54.8       0.051
  127                  JUNCTION      0.00    29.44     1  13:33           0        54.7       0.051
  128                  JUNCTION      0.00    29.44     1  13:34           0        54.7       0.051
  129                  JUNCTION      0.00    29.44     1  13:35           0        54.7       0.051
  130                  JUNCTION      0.00    29.44     1  13:35           0        54.7       0.051
  131                  JUNCTION      0.00    29.44     1  13:36           0        54.6       0.051
  132                  JUNCTION      0.00    29.44     1  13:36           0        54.6       0.051
  133                  JUNCTION      0.00    29.44     1  13:37           0        54.6       0.051
  134                  JUNCTION      0.00    29.44     1  13:38           0        54.6       0.052
  135                  JUNCTION      0.00    29.44     1  13:38           0        54.5       0.051
  136                  JUNCTION      0.00    29.44     1  13:39           0        54.5       0.051
  137                  JUNCTION      0.00    29.44     1  13:39           0        54.5       0.051
  138                  JUNCTION      0.00    29.44     1  13:39           0        54.4       0.051
  139                  JUNCTION      0.00    29.44     1  13:40           0        54.4       0.051
  140                  JUNCTION      0.00    29.44     1  14:02           0        54.4       0.052
  141                  JUNCTION      0.00    29.44     1  13:41           0        54.4       0.051
  142                  JUNCTION      0.00    29.44     1  13:41           0        54.3       0.051
  143                  JUNCTION      0.00    29.44     1  14:02           0        54.3       0.051
  144                  JUNCTION      0.00    29.44     1  14:01           0        54.3       0.051
  145                  JUNCTION      0.00    29.45     1  14:02           0        54.2       0.051
  146                  JUNCTION      0.00    29.44     1  13:42           0        54.2       0.051
  147                  JUNCTION      0.00    29.44     1  13:42           0        54.2       0.051
  148                  JUNCTION      0.00    29.44     1  13:42           0        54.2       0.050
  149                  JUNCTION      0.00    29.44     1  14:02           0        54.1       0.054
  231                  JUNCTION      0.00    29.67     1  12:05           0          56       0.069
  150                  OUTFALL       0.00    29.44     1  13:43           0        54.1       0.000
  
  
  **********************
  Node Surcharge Summary
  **********************
  
  Surcharging occurs when water rises above the top of the highest conduit.
  ---------------------------------------------------------------------
                                               Max. Height   Min. Depth
                                   Hours       Above Crown    Below Rim
  Node                 Type      Surcharged           Feet         Feet
  ---------------------------------------------------------------------
  1                    JUNCTION       95.71        118.221        0.000
  2                    JUNCTION       95.63        117.410        0.000
  3                    JUNCTION       95.55        116.600        0.000
  4                    JUNCTION       95.48        115.792        0.000
  5                    JUNCTION       95.41        114.986        0.000
  6                    JUNCTION       95.34        114.205        0.000
  7                    JUNCTION       95.27        113.404        0.000
  8                    JUNCTION       95.21        112.602        0.000
  9                    JUNCTION       95.14        111.818        0.000
  10                   JUNCTION       95.07        111.028        0.000
  11                   JUNCTION       95.00        110.229        0.000
  12                   JUNCTION       94.98        109.453        0.000
  13                   JUNCTION       94.92        108.664        0.000
  14                   JUNCTION       94.86        107.871        0.000
  15                   JUNCTION       94.80        107.103        0.000
  16                   JUNCTION       94.75        106.311        0.000
  17                   JUNCTION       94.68        105.541        0.000
  18                   JUNCTION       94.62        104.758        0.000
  19                   JUNCTION       94.56        103.991        0.000
  20                   JUNCTION       94.50        103.210        0.000
  21                   JUNCTION       94.44        102.446        0.000
  22                   JUNCTION       94.38        101.698        0.000
  23                   JUNCTION       94.32        100.966        0.000
  24                   JUNCTION       94.25        100.229        0.000
  25                   JUNCTION       94.19         99.498        0.000
  26                   JUNCTION       94.13         98.762        0.000
  27                   JUNCTION       94.07         98.031        0.000
  28                   JUNCTION       94.01         97.296        0.000
  29                   JUNCTION       93.96         96.565        0.000
  30                   JUNCTION       93.92         95.830        0.000
  31                   JUNCTION       93.87         95.101        0.000
  32                   JUNCTION       93.81         94.366        0.000
  33                   JUNCTION       93.76         93.637        0.000
  34                   JUNCTION       93.70         92.903        0.000
  35                   JUNCTION       93.64         92.174        0.000
  36                   JUNCTION       93.59         91.441        0.000
  37                   JUNCTION       93.53         90.713        0.000
  38                   JUNCTION       93.47         89.980        0.000
  39                   JUNCTION       93.41         89.252        0.000
  40                   JUNCTION       93.36         88.520        0.000
  41                   JUNCTION       93.30         87.791        0.000
  42                   JUNCTION       93.24         87.059        0.000
  43                   JUNCTION       93.18         86.331        0.000
  44                   JUNCTION       93.13         85.600        0.000
  45                   JUNCTION       93.07         84.873        0.000
  46                   JUNCTION       93.01         84.142        0.000
  47                   JUNCTION       92.96         83.415        0.000
  48                   JUNCTION       92.91         82.696        0.000
  49                   JUNCTION       92.86         81.965        0.000
  50                   JUNCTION       92.81         81.234        0.000
  51                   JUNCTION       92.76         80.520        0.000
  52                   JUNCTION       92.71         79.790        0.000
  53                   JUNCTION       92.66         79.053        0.000
  54                   JUNCTION       92.60         78.329        0.000
  55                   JUNCTION       92.55         77.594        0.000
  56                   JUNCTION       92.50         76.886        0.000
  57                   JUNCTION       92.44         76.153        0.000
  58                   JUNCTION       92.39         75.425        0.000
  59                   JUNCTION       92.34         74.716        0.000
  60                   JUNCTION       92.28         73.976        0.000
  61                   JUNCTION       92.23         73.238        0.000
  62                   JUNCTION       92.17         72.537        0.000
  63                   JUNCTION       92.12         71.796        0.000
  64                   JUNCTION       92.06         71.062        0.000
  65                   JUNCTION       92.01         70.338        0.000
  66                   JUNCTION       91.96         69.612        0.000
  67                   JUNCTION       91.91         68.903        0.000
  68                   JUNCTION       91.86         68.164        0.000
  69                   JUNCTION       91.81         67.440        0.000
  70                   JUNCTION       91.76         66.716        0.000
  71                   JUNCTION       91.71         65.992        0.000
  72                   JUNCTION       91.66         65.269        0.000
  73                   JUNCTION       91.61         64.546        0.000
  74                   JUNCTION       91.56         63.825        0.000
  75                   JUNCTION       91.51         63.105        0.000
  76                   JUNCTION       91.46         62.385        0.000
  77                   JUNCTION       91.41         61.665        0.000
  78                   JUNCTION       91.36         60.946        0.000
  79                   JUNCTION       91.35         60.227        0.000
  80                   JUNCTION       91.35         59.508        0.000
  82                   JUNCTION       90.89         58.149        0.000
  83                   JUNCTION       90.85         57.429        0.000
  84                   JUNCTION       90.81         56.709        0.000
  85                   JUNCTION       90.75         55.989        0.000
  86                   JUNCTION       90.72         55.270        0.000
  87                   JUNCTION       90.66         54.551        0.000
  88                   JUNCTION       90.62         53.832        0.000
  89                   JUNCTION       90.59         53.113        0.000
  90                   JUNCTION       90.53         52.395        0.000
  91                   JUNCTION       90.50         51.677        0.000
  92                   JUNCTION       90.45         50.959        0.000
  93                   JUNCTION       90.41         50.241        0.000
  94                   JUNCTION       90.37         49.523        0.000
  95                   JUNCTION       90.33         48.806        0.000
  96                   JUNCTION       90.26         48.089        0.000
  97                   JUNCTION       90.23         47.371        0.000
  98                   JUNCTION       90.18         46.654        0.000
  99                   JUNCTION       90.12         45.937        0.000
  100                  JUNCTION       90.10         45.220        0.000
  101                  JUNCTION       90.05         44.503        0.000
  102                  JUNCTION       90.01         43.786        0.000
  103                  JUNCTION       89.95         43.069        0.000
  104                  JUNCTION       89.90         42.352        0.000
  105                  JUNCTION       89.86         41.636        0.000
  106                  JUNCTION       89.83         40.919        0.000
  107                  JUNCTION       89.79         40.202        0.000
  108                  JUNCTION       89.74         39.486        0.000
  109                  JUNCTION       89.69         38.769        0.000
  110                  JUNCTION       89.65         38.053        0.000
  111                  JUNCTION       89.61         37.336        0.000
  112                  JUNCTION       89.56         36.620        0.000
  113                  JUNCTION       89.52         35.903        0.000
  114                  JUNCTION       89.48         35.187        0.000
  115                  JUNCTION       89.44         34.471        0.000
  116                  JUNCTION       89.39         33.754        0.000
  117                  JUNCTION       89.35         33.038        0.000
  118                  JUNCTION       89.30         32.322        0.000
  119                  JUNCTION       89.26         31.605        0.000
  120                  JUNCTION       89.22         30.889        0.000
  121                  JUNCTION       89.17         30.173        0.000
  122                  JUNCTION       89.13         29.456        0.000
  123                  JUNCTION       89.09         28.740        0.000
  124                  JUNCTION       89.04         28.024        0.000
  125                  JUNCTION       89.00         27.308        0.000
  126                  JUNCTION       88.95         26.591        0.000
  127                  JUNCTION       88.91         25.875        0.000
  128                  JUNCTION       88.87         25.159        0.000
  129                  JUNCTION       88.82         24.442        0.000
  130                  JUNCTION       88.78         23.726        0.000
  131                  JUNCTION       88.74         23.015        0.000
  132                  JUNCTION       88.69         22.294        0.000
  133                  JUNCTION       88.65         21.585        0.000
  134                  JUNCTION       88.61         20.875        0.000
  135                  JUNCTION       88.57         20.145        0.000
  136                  JUNCTION       88.52         19.433        0.000
  137                  JUNCTION       88.48         18.729        0.000
  138                  JUNCTION       88.44         18.013        0.000
  139                  JUNCTION       88.39         17.295        0.000
  140                  JUNCTION       88.35         16.585        0.000
  141                  JUNCTION       88.31         15.864        0.000
  142                  JUNCTION       88.26         15.153        0.000
  143                  JUNCTION       88.22         14.440        0.000
  144                  JUNCTION       88.18         13.722        0.000
  145                  JUNCTION       88.13         13.014        0.000
  146                  JUNCTION       88.09         12.294        0.000
  147                  JUNCTION       88.06         11.592        0.000
  148                  JUNCTION       88.06         10.861        0.000
  231                  JUNCTION       91.35         58.790        0.000
  
  
  *********************
  Node Flooding Summary
  *********************
  
  No nodes were flooded.
  
  
  ***********************
  Outfall Loading Summary
  ***********************
  
  -----------------------------------------------------------
                         Flow       Avg       Max       Total
                         Freq      Flow      Flow      Volume
  Outfall Node           Pcnt       CFS       CFS    10^6 gal
  -----------------------------------------------------------
  150                   91.41     22.83     29.44      54.107
  -----------------------------------------------------------
  System                91.41     22.83     29.44      54.107
  
  
  ********************
  Link Flow Summary
  ********************
  
  -----------------------------------------------------------------------------
                                 Maximum  Time of Max   Maximum    Max/    Max/
                                  |Flow|   Occurrence   |Veloc|    Full    Full
  Link                 Type          CFS  days hr:min    ft/sec    Flow   Depth
  -----------------------------------------------------------------------------
  1                    CONDUIT     77.77     0  00:00    >50.00   90.98    1.00
  2                    CONDUIT     31.45     0  11:35      4.45   36.79    1.00
  3                    CONDUIT     31.42     1  12:00      4.44   36.75    1.00
  4                    CONDUIT     31.39     1  12:00      4.44   36.72    1.00
  5                    CONDUIT     31.36     1  12:00      4.44   36.69    1.00
  6                    CONDUIT     31.33     1  12:00      4.43   36.65    1.00
  7                    CONDUIT     31.30     1  12:00      4.43   36.62    1.00
  8                    CONDUIT     31.28     1  12:00      4.42   36.59    1.00
  9                    CONDUIT     31.25     1  12:00      4.42   36.55    1.00
  10                   CONDUIT     31.22     1  12:00      4.42   36.52    1.00
  11                   CONDUIT     31.19     1  12:00      4.41   36.49    1.00
  12                   CONDUIT     31.16     1  12:00      4.41   36.45    1.00
  13                   CONDUIT     31.13     1  12:00      4.40   36.42    1.00
  14                   CONDUIT     31.11     1  12:00      4.40   36.39    1.00
  15                   CONDUIT     31.08     1  12:00      4.40   36.36    1.00
  16                   CONDUIT     31.05     1  12:00      4.39   36.32    1.00
  17                   CONDUIT     31.02     1  12:00      4.39   36.29    1.00
  18                   CONDUIT     31.00     1  12:00      4.38   36.26    1.00
  19                   CONDUIT     30.97     1  12:01      4.38   36.23    1.00
  20                   CONDUIT     30.94     1  12:01      4.38   36.19    1.00
  21                   CONDUIT     30.91     1  12:01      4.37   36.16    1.00
  22                   CONDUIT     30.89     1  12:01      4.37   36.13    1.00
  23                   CONDUIT     30.86     1  12:01      4.37   36.10    1.00
  24                   CONDUIT     30.83     1  12:01      4.36   36.07    1.00
  25                   CONDUIT     30.81     1  12:01      4.36   36.04    1.00
  26                   CONDUIT     30.78     1  12:01      4.35   36.01    1.00
  27                   CONDUIT     30.75     1  12:01      4.35   35.98    1.00
  28                   CONDUIT     30.73     1  12:01      4.35   35.95    1.00
  29                   CONDUIT     30.70     1  12:01      4.34   35.92    1.00
  30                   CONDUIT     30.68     1  12:01      4.34   35.89    1.00
  31                   CONDUIT     30.65     1  12:02      4.34   35.86    1.00
  32                   CONDUIT     30.63     1  12:02      4.33   35.83    1.00
  33                   CONDUIT     30.60     1  12:02      4.33   35.80    1.00
  34                   CONDUIT     30.58     1  12:02      4.33   35.77    1.00
  35                   CONDUIT     30.55     1  12:02      4.32   35.74    1.00
  36                   CONDUIT     30.53     1  12:02      4.32   35.71    1.00
  37                   CONDUIT     30.50     1  12:02      4.32   35.68    1.00
  38                   CONDUIT     30.48     1  12:02      4.31   35.65    1.00
  39                   CONDUIT     30.45     1  12:02      4.31   35.62    1.00
  40                   CONDUIT     30.43     1  12:02      4.30   35.59    1.00
  41                   CONDUIT     30.41     1  12:02      4.30   35.57    1.00
  42                   CONDUIT     30.38     1  12:03      4.30   35.54    1.00
  43                   CONDUIT     30.36     1  12:03      4.29   35.51    1.00
  44                   CONDUIT     30.33     1  12:03      4.29   35.49    1.00
  45                   CONDUIT     30.31     1  12:03      4.29   35.46    1.00
  46                   CONDUIT     30.29     1  12:03      4.28   35.43    1.00
  47                   CONDUIT     30.27     1  12:03      4.28   35.40    1.00
  48                   CONDUIT     30.24     1  12:03      4.28   35.38    1.00
  49                   CONDUIT     30.22     1  12:03      4.28   35.35    1.00
  50                   CONDUIT     30.20     1  12:03      4.27   35.33    1.00
  51                   CONDUIT     30.18     1  12:03      4.27   35.30    1.00
  52                   CONDUIT     30.16     1  12:03      4.27   35.28    1.00
  53                   CONDUIT     30.14     1  12:03      4.26   35.26    1.00
  54                   CONDUIT     30.12     1  12:03      4.26   35.23    1.00
  55                   CONDUIT     30.10     1  12:04      4.26   35.21    1.00
  56                   CONDUIT     30.08     1  12:04      4.26   35.19    1.00
  57                   CONDUIT     30.06     1  12:04      4.25   35.16    1.00
  58                   CONDUIT     30.05     1  12:04      4.25   35.15    1.00
  59                   CONDUIT     30.01     1  12:04      4.25   35.11    1.00
  60                   CONDUIT     30.00     1  12:04      4.24   35.10    1.00
  61                   CONDUIT     29.97     1  12:04      4.24   35.06    1.00
  62                   CONDUIT     29.96     1  12:05      4.24   35.04    1.00
  63                   CONDUIT     29.94     1  12:04      4.24   35.02    1.00
  64                   CONDUIT     29.92     1  12:05      4.23   35.00    1.00
  65                   CONDUIT     29.90     1  12:04      4.23   34.98    1.00
  66                   CONDUIT     29.88     1  12:06      4.23   34.95    1.00
  67                   CONDUIT     29.86     1  12:04      4.22   34.93    1.00
  68                   CONDUIT     29.84     1  12:05      4.22   34.90    1.00
  69                   CONDUIT     29.83     1  12:05      4.22   34.89    1.00
  70                   CONDUIT     29.80     1  12:05      4.22   34.86    1.00
  71                   CONDUIT     29.79     1  12:05      4.21   34.85    1.00
  72                   CONDUIT     29.78     1  12:06      4.21   34.83    1.00
  73                   CONDUIT     29.77     1  12:06      4.21   34.82    1.00
  74                   CONDUIT     29.74     1  12:06      4.21   34.79    1.00
  75                   CONDUIT     29.76     1  12:06      4.21   34.81    1.00
  76                   CONDUIT     29.72     1  12:06      4.20   34.76    1.00
  77                   CONDUIT     29.70     1  12:06      4.20   34.74    1.00
  78                   CONDUIT     29.67     1  12:06      4.20   34.71    1.00
  79                   CONDUIT     29.67     1  12:06      4.20   34.70    1.00
  80                   CONDUIT     29.67     1  12:05      4.20   34.70    1.00
  82                   CONDUIT     29.62     1  13:03      4.19   34.65    1.00
  83                   CONDUIT     29.60     1  13:03      4.19   34.63    1.00
  84                   CONDUIT     29.56     1  13:03      4.18   34.58    1.00
  85                   CONDUIT     29.57     1  13:03      4.18   34.59    1.00
  86                   CONDUIT     29.56     1  13:03      4.18   34.58    1.00
  87                   CONDUIT     29.54     1  13:03      4.18   34.55    1.00
  88                   CONDUIT     29.55     1  13:03      4.18   34.56    1.00
  89                   CONDUIT     29.54     1  13:03      4.18   34.55    1.00
  90                   CONDUIT     29.55     1  13:03      4.18   34.57    1.00
  91                   CONDUIT     29.53     1  13:03      4.18   34.54    1.00
  92                   CONDUIT     29.52     1  13:02      4.18   34.53    1.00
  93                   CONDUIT     29.51     1  13:03      4.18   34.52    1.00
  94                   CONDUIT     29.52     1  13:04      4.18   34.53    1.00
  95                   CONDUIT     29.50     1  13:11      4.17   34.51    1.00
  96                   CONDUIT     29.50     1  13:03      4.17   34.51    1.00
  97                   CONDUIT     29.49     1  13:04      4.17   34.50    1.00
  98                   CONDUIT     29.50     1  13:04      4.17   34.50    1.00
  99                   CONDUIT     29.49     1  13:04      4.17   34.50    1.00
  100                  CONDUIT     29.49     1  13:04      4.17   34.49    1.00
  101                  CONDUIT     29.49     1  13:04      4.17   34.50    1.00
  102                  CONDUIT     29.48     1  13:13      4.17   34.48    1.00
  103                  CONDUIT     29.48     1  13:04      4.17   34.49    1.00
  104                  CONDUIT     29.47     1  13:14      4.17   34.48    1.00
  105                  CONDUIT     29.47     1  13:04      4.17   34.48    1.00
  106                  CONDUIT     29.47     1  13:15      4.17   34.47    1.00
  107                  CONDUIT     29.47     1  13:03      4.17   34.48    1.00
  108                  CONDUIT     29.46     1  13:04      4.17   34.47    1.00
  109                  CONDUIT     29.46     1  13:18      4.17   34.46    1.00
  110                  CONDUIT     29.46     1  13:18      4.17   34.46    1.00
  111                  CONDUIT     29.46     1  13:19      4.17   34.46    1.00
  112                  CONDUIT     29.45     1  13:20      4.17   34.46    1.00
  113                  CONDUIT     29.45     1  13:21      4.17   34.45    1.00
  114                  CONDUIT     29.45     1  13:22      4.17   34.45    1.00
  115                  CONDUIT     29.45     1  13:23      4.17   34.45    1.00
  116                  CONDUIT     29.45     1  13:24      4.17   34.45    1.00
  117                  CONDUIT     29.45     1  13:25      4.17   34.45    1.00
  118                  CONDUIT     29.45     1  13:26      4.17   34.44    1.00
  119                  CONDUIT     29.44     1  13:27      4.17   34.44    1.00
  120                  CONDUIT     29.44     1  13:28      4.17   34.44    1.00
  121                  CONDUIT     29.44     1  13:29      4.17   34.44    1.00
  122                  CONDUIT     29.44     1  13:30      4.17   34.44    1.00
  123                  CONDUIT     29.44     1  13:30      4.17   34.44    1.00
  124                  CONDUIT     29.44     1  13:31      4.16   34.44    1.00
  125                  CONDUIT     29.44     1  13:32      4.16   34.44    1.00
  126                  CONDUIT     29.44     1  13:33      4.16   34.44    1.00
  127                  CONDUIT     29.44     1  13:34      4.16   34.44    1.00
  128                  CONDUIT     29.44     1  13:35      4.16   34.44    1.00
  129                  CONDUIT     29.44     1  13:35      4.16   34.44    1.00
  130                  CONDUIT     29.44     1  13:36      4.16   34.44    1.00
  131                  CONDUIT     29.44     1  13:36      4.16   34.44    1.00
  132                  CONDUIT     29.44     1  13:37      4.16   34.44    1.00
  133                  CONDUIT     29.44     1  13:38      4.16   34.44    1.00
  134                  CONDUIT     29.44     1  13:38      4.16   34.44    1.00
  135                  CONDUIT     29.44     1  13:39      4.16   34.44    1.00
  136                  CONDUIT     29.44     1  13:39      4.16   34.44    1.00
  137                  CONDUIT     29.44     1  13:39      4.16   34.44    1.00
  138                  CONDUIT     29.44     1  13:40      4.16   34.44    1.00
  139                  CONDUIT     29.44     1  14:02      4.17   34.44    1.00
  140                  CONDUIT     29.44     1  13:41      4.16   34.44    1.00
  141                  CONDUIT     29.44     1  13:41      4.16   34.44    1.00
  142                  CONDUIT     29.44     1  14:02      4.17   34.44    1.00
  143                  CONDUIT     29.44     1  14:01      4.17   34.44    1.00
  144                  CONDUIT     29.45     1  14:02      4.17   34.45    1.00
  145                  CONDUIT     29.44     1  13:42      4.16   34.44    1.00
  146                  CONDUIT     29.44     1  13:42      4.16   34.44    1.00
  147                  CONDUIT     29.44     1  13:42      4.16   34.44    1.00
  148                  CONDUIT     29.44     1  14:02      4.17    0.35    1.00
  149                  CONDUIT     29.44     1  13:43      6.10    0.83    0.65
  231                  ORIFICE     29.65     1  13:01                      1.00
  
  
  ***************************
  Flow Classification Summary
  ***************************
  
  -------------------------------------------------------------------------------------
                      Adjusted    ---------- Fraction of Time in Flow Class ---------- 
                       /Actual         Up    Down  Sub   Sup   Up    Down  Norm  Inlet 
  Conduit               Length    Dry  Dry   Dry   Crit  Crit  Crit  Crit  Ltd   Ctrl  
  -------------------------------------------------------------------------------------
  1                       1.00   0.00  0.00  0.00  1.00  0.00  0.00  0.00  0.00  0.00
  2                       1.00   0.00  0.00  0.00  1.00  0.00  0.00  0.00  0.00  0.00
  3                       1.00   0.00  0.00  0.00  1.00  0.00  0.00  0.00  0.00  0.00
  4                       1.00   0.00  0.00  0.00  1.00  0.00  0.00  0.00  0.00  0.00
  5                       1.00   0.00  0.00  0.00  1.00  0.00  0.00  0.00  0.00  0.00
  6                       1.00   0.00  0.00  0.00  1.00  0.00  0.00  0.00  0.00  0.00
  7                       1.00   0.00  0.00  0.00  1.00  0.00  0.00  0.00  0.00  0.00
  8                       1.00   0.00  0.00  0.00  1.00  0.00  0.00  0.00  0.00  0.00
  9                       1.00   0.00  0.00  0.00  1.00  0.00  0.00  0.00  0.00  0.00
  10                      1.00   0.00  0.00  0.00  1.00  0.00  0.00  0.00  0.00  0.00
  11                      1.00   0.00  0.00  0.00  1.00  0.00  0.00  0.00  0.00  0.00
  12                      1.00   0.00  0.00  0.00  1.00  0.00  0.00  0.00  0.00  0.00
  13                      1.00   0.01  0.00  0.00  0.99  0.00  0.00  0.00  0.00  0.00
  14                      1.00   0.01  0.00  0.00  0.99  0.00  0.00  0.00  0.00  0.00
  15                      1.00   0.01  0.00  0.00  0.99  0.00  0.00  0.00  0.00  0.00
  16                      1.00   0.01  0.00  0.00  0.99  0.00  0.00  0.00  0.00  0.00
  17                      1.00   0.01  0.00  0.00  0.99  0.00  0.00  0.00  0.00  0.00
  18                      1.00   0.01  0.00  0.00  0.99  0.00  0.00  0.00  0.00  0.00
  19                      1.00   0.01  0.00  0.00  0.99  0.00  0.00  0.00  0.00  0.00
  20                      1.00   0.01  0.00  0.00  0.99  0.00  0.00  0.00  0.00  0.00
  21                      1.00   0.01  0.00  0.00  0.99  0.00  0.00  0.00  0.00  0.00
  22                      1.00   0.01  0.00  0.00  0.99  0.00  0.00  0.00  0.00  0.00
  23                      1.00   0.01  0.00  0.00  0.99  0.00  0.00  0.00  0.00  0.00
  24                      1.00   0.01  0.00  0.00  0.99  0.00  0.00  0.00  0.00  0.00
  25                      1.00   0.01  0.00  0.00  0.99  0.00  0.00  0.00  0.00  0.00
  26                      1.00   0.01  0.00  0.00  0.99  0.00  0.00  0.00  0.00  0.00
  27                      1.00   0.02  0.00  0.00  0.98  0.00  0.00  0.00  0.00  0.00
  28                      1.00   0.02  0.00  0.00  0.98  0.00  0.00  0.00  0.00  0.00
  29                      1.00   0.02  0.00  0.00  0.98  0.00  0.00  0.00  0.00  0.00
  30                      1.00   0.02  0.00  0.00  0.98  0.00  0.00  0.00  0.00  0.00
  31                      1.00   0.02  0.00  0.00  0.98  0.00  0.00  0.00  0.00  0.00
  32                      1.00   0.02  0.00  0.00  0.98  0.00  0.00  0.00  0.00  0.00
  33                      1.00   0.02  0.00  0.00  0.98  0.00  0.00  0.00  0.00  0.00
  34                      1.00   0.02  0.00  0.00  0.98  0.00  0.00  0.00  0.00  0.00
  35                      1.00   0.02  0.00  0.00  0.98  0.00  0.00  0.00  0.00  0.00
  36                      1.00   0.02  0.00  0.00  0.98  0.00  0.00  0.00  0.00  0.00
  37                      1.00   0.02  0.00  0.00  0.98  0.00  0.00  0.00  0.00  0.00
  38                      1.00   0.02  0.00  0.00  0.98  0.00  0.00  0.00  0.00  0.00
  39                      1.00   0.02  0.00  0.00  0.98  0.00  0.00  0.00  0.00  0.00
  40                      1.00   0.02  0.00  0.00  0.98  0.00  0.00  0.00  0.00  0.00
  41                      1.00   0.02  0.00  0.00  0.98  0.00  0.00  0.00  0.00  0.00
  42                      1.00   0.03  0.00  0.00  0.97  0.00  0.00  0.00  0.00  0.00
  43                      1.00   0.03  0.00  0.00  0.97  0.00  0.00  0.00  0.00  0.00
  44                      1.00   0.03  0.00  0.00  0.97  0.00  0.00  0.00  0.00  0.00
  45                      1.00   0.03  0.00  0.00  0.97  0.00  0.00  0.00  0.00  0.00
  46                      1.00   0.03  0.00  0.00  0.97  0.00  0.00  0.00  0.00  0.00
  47                      1.00   0.03  0.00  0.00  0.97  0.00  0.00  0.00  0.00  0.00
  48                      1.00   0.03  0.00  0.00  0.97  0.00  0.00  0.00  0.00  0.00
  49                      1.00   0.03  0.00  0.00  0.97  0.00  0.00  0.00  0.00  0.00
  50                      1.00   0.03  0.00  0.00  0.97  0.00  0.00  0.00  0.00  0.00
  51                      1.00   0.03  0.00  0.00  0.97  0.00  0.00  0.00  0.00  0.00
  52                      1.00   0.03  0.00  0.00  0.97  0.00  0.00  0.00  0.00  0.00
  53                      1.00   0.03  0.00  0.00  0.97  0.00  0.00  0.00  0.00  0.00
  54                      1.00   0.03  0.00  0.00  0.97  0.00  0.00  0.00  0.00  0.00
  55                      1.00   0.03  0.00  0.00  0.97  0.00  0.00  0.00  0.00  0.00
  56                      1.00   0.03  0.00  0.00  0.97  0.00  0.00  0.00  0.00  0.00
  57                      1.00   0.03  0.00  0.00  0.97  0.00  0.00  0.00  0.00  0.00
  58                      1.00   0.04  0.00  0.00  0.96  0.00  0.00  0.00  0.00  0.00
  59                      1.00   0.04  0.00  0.00  0.96  0.00  0.00  0.00  0.00  0.00
  60                      1.00   0.04  0.00  0.00  0.96  0.00  0.00  0.00  0.00  0.00
  61                      1.00   0.04  0.00  0.00  0.96  0.00  0.00  0.00  0.00  0.00
  62                      1.00   0.04  0.00  0.00  0.96  0.00  0.00  0.00  0.00  0.00
  63                      1.00   0.04  0.00  0.00  0.96  0.00  0.00  0.00  0.00  0.00
  64                      1.00   0.04  0.00  0.00  0.96  0.00  0.00  0.00  0.00  0.00
  65                      1.00   0.04  0.00  0.00  0.96  0.00  0.00  0.00  0.00  0.00
  66                      1.00   0.04  0.00  0.00  0.96  0.00  0.00  0.00  0.00  0.00
  67                      1.00   0.04  0.00  0.00  0.96  0.00  0.00  0.00  0.00  0.00
  68                      1.00   0.04  0.00  0.00  0.96  0.00  0.00  0.00  0.00  0.00
  69                      1.00   0.04  0.00  0.00  0.96  0.00  0.00  0.00  0.00  0.00
  70                      1.00   0.04  0.00  0.00  0.96  0.00  0.00  0.00  0.00  0.00
  71                      1.00   0.04  0.00  0.00  0.96  0.00  0.00  0.00  0.00  0.00
  72                      1.00   0.04  0.00  0.00  0.96  0.00  0.00  0.00  0.00  0.00
  73                      1.00   0.04  0.00  0.00  0.96  0.00  0.00  0.00  0.00  0.00
  74                      1.00   0.04  0.00  0.00  0.96  0.00  0.00  0.00  0.00  0.00
  75                      1.00   0.05  0.00  0.00  0.95  0.00  0.00  0.00  0.00  0.00
  76                      1.00   0.05  0.00  0.00  0.95  0.00  0.00  0.00  0.00  0.00
  77                      1.00   0.05  0.00  0.00  0.95  0.00  0.00  0.00  0.00  0.00
  78                      1.00   0.05  0.00  0.00  0.95  0.00  0.00  0.00  0.00  0.00
  79                      1.00   0.05  0.00  0.00  0.95  0.00  0.00  0.00  0.00  0.00
  80                      1.00   0.05  0.00  0.00  0.95  0.00  0.00  0.00  0.00  0.00
  82                      1.00   0.05  0.00  0.00  0.95  0.00  0.00  0.00  0.00  0.00
  83                      1.00   0.05  0.00  0.00  0.95  0.00  0.00  0.00  0.00  0.00
  84                      1.00   0.05  0.00  0.00  0.95  0.00  0.00  0.00  0.00  0.00
  85                      1.00   0.05  0.00  0.00  0.95  0.00  0.00  0.00  0.00  0.00
  86                      1.00   0.05  0.00  0.00  0.95  0.00  0.00  0.00  0.00  0.00
  87                      1.00   0.05  0.00  0.00  0.95  0.00  0.00  0.00  0.00  0.00
  88                      1.00   0.05  0.00  0.00  0.95  0.00  0.00  0.00  0.00  0.00
  89                      1.00   0.06  0.00  0.00  0.94  0.00  0.00  0.00  0.00  0.00
  90                      1.00   0.06  0.00  0.00  0.94  0.00  0.00  0.00  0.00  0.00
  91                      1.00   0.06  0.00  0.00  0.94  0.00  0.00  0.00  0.00  0.00
  92                      1.00   0.06  0.00  0.00  0.94  0.00  0.00  0.00  0.00  0.00
  93                      1.00   0.06  0.00  0.00  0.94  0.00  0.00  0.00  0.00  0.00
  94                      1.00   0.06  0.00  0.00  0.94  0.00  0.00  0.00  0.00  0.00
  95                      1.00   0.06  0.00  0.00  0.94  0.00  0.00  0.00  0.00  0.00
  96                      1.00   0.06  0.00  0.00  0.94  0.00  0.00  0.00  0.00  0.00
  97                      1.00   0.06  0.00  0.00  0.94  0.00  0.00  0.00  0.00  0.00
  98                      1.00   0.06  0.00  0.00  0.94  0.00  0.00  0.00  0.00  0.00
  99                      1.00   0.06  0.00  0.00  0.94  0.00  0.00  0.00  0.00  0.00
  100                     1.00   0.06  0.00  0.00  0.94  0.00  0.00  0.00  0.00  0.00
  101                     1.00   0.06  0.00  0.00  0.94  0.00  0.00  0.00  0.00  0.00
  102                     1.00   0.06  0.00  0.00  0.94  0.00  0.00  0.00  0.00  0.00
  103                     1.00   0.06  0.00  0.00  0.94  0.00  0.00  0.00  0.00  0.00
  104                     1.00   0.06  0.00  0.00  0.94  0.00  0.00  0.00  0.00  0.00
  105                     1.00   0.06  0.00  0.00  0.94  0.00  0.00  0.00  0.00  0.00
  106                     1.00   0.06  0.00  0.00  0.94  0.00  0.00  0.00  0.00  0.00
  107                     1.00   0.06  0.00  0.00  0.94  0.00  0.00  0.00  0.00  0.00
  108                     1.00   0.07  0.00  0.00  0.93  0.00  0.00  0.00  0.00  0.00
  109                     1.00   0.07  0.00  0.00  0.93  0.00  0.00  0.00  0.00  0.00
  110                     1.00   0.07  0.00  0.00  0.93  0.00  0.00  0.00  0.00  0.00
  111                     1.00   0.07  0.00  0.00  0.93  0.00  0.00  0.00  0.00  0.00
  112                     1.00   0.07  0.00  0.00  0.93  0.00  0.00  0.00  0.00  0.00
  113                     1.00   0.07  0.00  0.00  0.93  0.00  0.00  0.00  0.00  0.00
  114                     1.00   0.07  0.00  0.00  0.93  0.00  0.00  0.00  0.00  0.00
  115                     1.00   0.07  0.00  0.00  0.93  0.00  0.00  0.00  0.00  0.00
  116                     1.00   0.07  0.00  0.00  0.93  0.00  0.00  0.00  0.00  0.00
  117                     1.00   0.07  0.00  0.00  0.93  0.00  0.00  0.00  0.00  0.00
  118                     1.00   0.07  0.00  0.00  0.93  0.00  0.00  0.00  0.00  0.00
  119                     1.00   0.07  0.00  0.00  0.93  0.00  0.00  0.00  0.00  0.00
  120                     1.00   0.07  0.00  0.00  0.93  0.00  0.00  0.00  0.00  0.00
  121                     1.00   0.07  0.00  0.00  0.93  0.00  0.00  0.00  0.00  0.00
  122                     1.00   0.07  0.00  0.00  0.93  0.00  0.00  0.00  0.00  0.00
  123                     1.00   0.07  0.00  0.00  0.93  0.00  0.00  0.00  0.00  0.00
  124                     1.00   0.07  0.00  0.00  0.93  0.00  0.00  0.00  0.00  0.00
  125                     1.00   0.07  0.00  0.00  0.93  0.00  0.00  0.00  0.00  0.00
  126                     1.00   0.07  0.00  0.00  0.93  0.00  0.00  0.00  0.00  0.00
  127                     1.00   0.07  0.00  0.00  0.93  0.00  0.00  0.00  0.00  0.00
  128                     1.00   0.07  0.00  0.00  0.93  0.00  0.00  0.00  0.00  0.00
  129                     1.00   0.08  0.00  0.00  0.92  0.00  0.00  0.00  0.00  0.00
  130                     1.00   0.08  0.00  0.00  0.92  0.00  0.00  0.00  0.00  0.00
  131                     1.00   0.08  0.00  0.00  0.92  0.00  0.00  0.00  0.00  0.00
  132                     1.00   0.08  0.00  0.00  0.92  0.00  0.00  0.00  0.00  0.00
  133                     1.00   0.08  0.00  0.00  0.92  0.00  0.00  0.00  0.00  0.00
  134                     1.00   0.08  0.00  0.00  0.92  0.00  0.00  0.00  0.00  0.00
  135                     1.00   0.08  0.00  0.00  0.92  0.00  0.00  0.00  0.00  0.00
  136                     1.00   0.08  0.00  0.00  0.92  0.00  0.00  0.00  0.00  0.00
  137                     1.00   0.08  0.00  0.00  0.92  0.00  0.00  0.00  0.00  0.00
  138                     1.00   0.08  0.00  0.00  0.92  0.00  0.00  0.00  0.00  0.00
  139                     1.00   0.08  0.00  0.00  0.92  0.00  0.00  0.00  0.00  0.00
  140                     1.00   0.08  0.00  0.00  0.92  0.00  0.00  0.00  0.00  0.00
  141                     1.00   0.08  0.00  0.00  0.92  0.00  0.00  0.00  0.00  0.00
  142                     1.00   0.08  0.00  0.00  0.92  0.00  0.00  0.00  0.00  0.00
  143                     1.00   0.08  0.00  0.00  0.92  0.00  0.00  0.00  0.00  0.00
  144                     1.00   0.08  0.00  0.00  0.92  0.00  0.00  0.00  0.00  0.00
  145                     1.00   0.08  0.00  0.00  0.92  0.00  0.00  0.00  0.00  0.00
  146                     1.00   0.08  0.00  0.00  0.92  0.00  0.00  0.00  0.00  0.00
  147                     1.00   0.08  0.00  0.00  0.92  0.00  0.00  0.00  0.00  0.00
  148                     1.00   0.08  0.00  0.00  0.91  0.00  0.00  0.00  0.00  0.00
  149                     1.00   0.09  0.00  0.00  0.91  0.00  0.00  0.00  0.00  0.00
  
  
  *************************
  Conduit Surcharge Summary
  *************************
  
  ----------------------------------------------------------------------------
                                                           Hours        Hours 
                         --------- Hours Full --------   Above Full   Capacity
  Conduit                Both Ends  Upstream  Dnstream   Normal Flow   Limited
  ----------------------------------------------------------------------------
  1                          95.63     95.71     95.63     96.00        95.60
  2                          95.55     95.63     95.55     95.96        95.55
  3                          95.48     95.55     95.48     95.92        95.48
  4                          95.41     95.48     95.41     95.87        95.41
  5                          95.34     95.41     95.34     95.81        95.34
  6                          95.27     95.34     95.27     95.76        95.27
  7                          95.20     95.27     95.20     95.70        95.20
  8                          95.14     95.20     95.14     95.64        95.14
  9                          95.07     95.14     95.07     95.58        95.07
  10                         95.00     95.07     95.00     95.52        95.00
  11                         94.98     95.00     94.98     95.45        94.98
  12                         94.92     94.98     94.92     95.39        94.92
  13                         94.86     94.92     94.86     95.32        94.86
  14                         94.80     94.86     94.80     95.26        94.80
  15                         94.75     94.80     94.75     95.19        94.75
  16                         94.68     94.75     94.68     95.13        94.68
  17                         94.62     94.68     94.62     95.06        94.62
  18                         94.56     94.62     94.56     94.99        94.56
  19                         94.50     94.56     94.50     94.92        94.50
  20                         94.44     94.50     94.44     94.86        94.44
  21                         94.38     94.44     94.38     94.79        94.38
  22                         94.32     94.38     94.32     94.73        94.32
  23                         94.25     94.32     94.25     94.67        94.25
  24                         94.19     94.25     94.19     94.61        94.19
  25                         94.13     94.19     94.13     94.55        94.13
  26                         94.07     94.13     94.07     94.48        94.07
  27                         94.01     94.07     94.01     94.42        94.01
  28                         93.96     94.01     93.96     94.36        93.96
  29                         93.92     93.96     93.92     94.30        93.92
  30                         93.87     93.92     93.87     94.24        93.87
  31                         93.81     93.87     93.81     94.18        93.81
  32                         93.76     93.81     93.76     94.11        93.76
  33                         93.70     93.76     93.70     94.05        93.70
  34                         93.64     93.70     93.64     93.99        93.64
  35                         93.59     93.64     93.59     93.93        93.59
  36                         93.53     93.59     93.53     93.87        93.53
  37                         93.47     93.53     93.47     93.81        93.47
  38                         93.41     93.47     93.41     93.75        93.41
  39                         93.36     93.41     93.36     93.69        93.36
  40                         93.30     93.36     93.30     93.63        93.30
  41                         93.24     93.30     93.24     93.58        93.24
  42                         93.18     93.24     93.18     93.52        93.18
  43                         93.13     93.18     93.13     93.46        93.13
  44                         93.07     93.13     93.07     93.41        93.07
  45                         93.01     93.07     93.01     93.35        93.01
  46                         92.96     93.01     92.96     93.29        92.95
  47                         92.91     92.96     92.91     93.23        92.90
  48                         92.86     92.91     92.86     93.17        92.85
  49                         92.81     92.86     92.81     93.12        92.80
  50                         92.76     92.81     92.76     93.06        92.74
  51                         92.71     92.76     92.71     93.00        92.69
  52                         92.66     92.71     92.66     92.95        92.64
  53                         92.60     92.66     92.60     92.89        92.58
  54                         92.55     92.60     92.55     92.83        92.53
  55                         92.50     92.55     92.50     92.77        92.47
  56                         92.44     92.50     92.44     92.72        92.42
  57                         92.39     92.44     92.39     92.67        92.37
  58                         92.34     92.39     92.34     92.61        92.31
  59                         92.28     92.34     92.28     92.56        92.25
  60                         92.23     92.28     92.23     92.50        92.20
  61                         92.17     92.23     92.17     92.45        92.14
  62                         92.12     92.17     92.12     92.40        92.09
  63                         92.06     92.12     92.06     92.35        92.03
  64                         92.01     92.06     92.01     92.29        91.98
  65                         91.96     92.01     91.96     92.24        91.93
  66                         91.91     91.96     91.91     92.18        91.88
  67                         91.86     91.91     91.86     92.13        91.83
  68                         91.81     91.86     91.81     92.07        91.78
  69                         91.76     91.81     91.76     92.02        91.73
  70                         91.71     91.76     91.71     91.97        91.68
  71                         91.66     91.71     91.66     91.91        91.63
  72                         91.61     91.66     91.61     91.86        91.58
  73                         91.56     91.61     91.56     91.80        91.53
  74                         91.51     91.56     91.51     91.75        91.38
  75                         91.46     91.51     91.46     91.70        91.28
  76                         91.41     91.46     91.41     91.65        91.19
  77                         91.36     91.41     91.36     91.57        91.17
  78                         91.35     91.36     91.35     91.41        91.07
  79                         91.35     91.35     91.35     91.31        90.88
  80                         91.35     91.35     91.35     91.25        90.52
  82                         90.84     90.88     90.84     91.11        90.35
  83                         90.81     90.84     90.81     91.06        90.72
  84                         90.75     90.81     90.75     91.01        90.75
  85                         90.72     90.75     90.72     90.95        90.72
  86                         90.66     90.72     90.66     90.90        90.66
  87                         90.62     90.66     90.62     90.84        90.62
  88                         90.59     90.62     90.59     90.79        90.59
  89                         90.53     90.59     90.53     90.74        90.53
  90                         90.50     90.53     90.50     90.69        90.50
  91                         90.45     90.50     90.45     90.64        90.45
  92                         90.41     90.45     90.41     90.59        90.41
  93                         90.37     90.41     90.37     90.54        90.37
  94                         90.33     90.37     90.33     90.49        90.33
  95                         90.26     90.33     90.26     90.45        90.26
  96                         90.23     90.26     90.23     90.40        90.23
  97                         90.18     90.23     90.18     90.35        90.18
  98                         90.12     90.18     90.12     90.31        90.12
  99                         90.10     90.12     90.10     90.27        90.10
  100                        90.05     90.10     90.05     90.22        90.05
  101                        90.01     90.05     90.01     90.17        90.01
  102                        89.95     90.01     89.95     90.13        89.95
  103                        89.90     89.95     89.90     90.08        89.90
  104                        89.86     89.90     89.86     90.04        89.86
  105                        89.83     89.86     89.83     89.99        89.83
  106                        89.79     89.83     89.79     89.95        89.79
  107                        89.74     89.79     89.74     89.90        89.74
  108                        89.69     89.74     89.69     89.86        89.69
  109                        89.65     89.69     89.65     89.81        89.65
  110                        89.61     89.65     89.61     89.77        89.61
  111                        89.56     89.61     89.56     89.72        89.56
  112                        89.52     89.56     89.52     89.68        89.52
  113                        89.48     89.52     89.48     89.63        89.48
  114                        89.44     89.48     89.44     89.59        89.44
  115                        89.39     89.44     89.39     89.55        89.39
  116                        89.35     89.39     89.35     89.50        89.35
  117                        89.30     89.35     89.30     89.46        89.30
  118                        89.26     89.30     89.26     89.41        89.26
  119                        89.22     89.26     89.22     89.37        89.22
  120                        89.17     89.22     89.17     89.33        89.17
  121                        89.13     89.17     89.13     89.28        89.13
  122                        89.09     89.13     89.09     89.24        89.09
  123                        89.04     89.09     89.04     89.20        89.04
  124                        89.00     89.04     89.00     89.15        89.00
  125                        88.95     89.00     88.95     89.11        88.95
  126                        88.91     88.95     88.91     89.06        88.91
  127                        88.87     88.91     88.87     89.02        88.87
  128                        88.82     88.87     88.82     88.98        88.82
  129                        88.78     88.82     88.78     88.93        88.78
  130                        88.74     88.78     88.74     88.89        88.74
  131                        88.69     88.74     88.69     88.84        88.69
  132                        88.65     88.69     88.65     88.80        88.65
  133                        88.61     88.65     88.61     88.76        88.61
  134                        88.57     88.61     88.57     88.72        88.57
  135                        88.52     88.57     88.52     88.67        88.52
  136                        88.48     88.52     88.48     88.63        88.48
  137                        88.44     88.48     88.44     88.58        88.43
  138                        88.39     88.44     88.39     88.54        88.39
  139                        88.35     88.39     88.35     88.50        88.35
  140                        88.31     88.35     88.31     88.46        88.30
  141                        88.26     88.31     88.26     88.41        88.26
  142                        88.22     88.26     88.22     88.37        88.21
  143                        88.18     88.22     88.18     88.33        88.17
  144                        88.13     88.18     88.13     88.29        88.12
  145                        88.09     88.13     88.09     88.24        88.08
  146                        88.06     88.09     88.06     88.20        88.06
  147                        88.06     88.06     88.06     88.15        88.06
  148                        88.03     88.03     88.06      0.01         0.01
  

  Analysis begun on:  Wed Jan 02 04:51:14 2019
  Analysis ended on:  Wed Jan 02 04:51:24 2019
  Total elapsed time: 00:00:10