
  EPA STORM WATER MANAGEMENT MODEL - VERSION 5.1 (Build 5.1.012)
  --------------------------------------------------------------

  WARNING 03: negative offset ignored for Link OR1@82309b-15009b
  WARNING 03: negative offset ignored for Link WEIR
  
  *********************************************************
  NOTE: The summary statistics displayed in this report are
  based on results found at every computational time step,  
  not just on results from each reporting time step.
  *********************************************************
  
  ****************
  Analysis Options
  ****************
  Flow Units ............... CFS
  Process Models:
    Rainfall/Runoff ........ NO
    RDII ................... NO
    Snowmelt ............... NO
    Groundwater ............ NO
    Flow Routing ........... YES
    Ponding Allowed ........ YES
    Water Quality .......... NO
  Flow Routing Method ...... DYNWAVE
  Starting Date ............ 01/01/1988 00:00:00
  Ending Date .............. 01/01/1988 06:00:00
  Antecedent Dry Days ...... 0.0
  Report Time Step ......... 00:01:00
  Routing Time Step ........ 60.00 sec
  Variable Time Step ....... YES
  Maximum Trials ........... 8
  Number of Threads ........ 1
  Head Tolerance ........... 0.005000 ft
  
  
  **************************        Volume        Volume
  Flow Routing Continuity        acre-feet      10^6 gal
  **************************     ---------     ---------
  Dry Weather Inflow .......        19.834         6.463
  Wet Weather Inflow .......         0.000         0.000
  Groundwater Inflow .......         0.000         0.000
  RDII Inflow ..............         0.000         0.000
  External Inflow ..........       200.553        65.353
  External Outflow .........       164.970        53.758
  Flooding Loss ............        42.214        13.756
  Evaporation Loss .........         0.109         0.036
  Exfiltration Loss ........         0.000         0.000
  Initial Stored Volume ....         1.569         0.511
  Final Stored Volume ......        16.697         5.441
  Continuity Error (%) .....        -0.917
  
  
  *************************
  Highest Continuity Errors
  *************************
  Node 80608 (50.58%)
  Node 10309 (20.86%)
  Node 81309e (13.78%)
  Node 16009 (8.26%)
  Node 80608a (2.93%)
  
  
  ***************************
  Time-Step Critical Elements
  ***************************
  Link 1630c (45.29%)
  Link 1600d (14.91%)
  Link 1600a (14.24%)
  Link 1600 (10.31%)
  Link 1570c (8.63%)
  
  
  ********************************
  Highest Flow Instability Indexes
  ********************************
  Link OR1@82309d-82308d (127)
  Link 8060a (38)
  Link 8060b (33)
  Link 8060e (28)
  Link 1602e (25)
  
  
  *************************
  Routing Time Step Summary
  *************************
  Minimum Time Step           :     3.01 sec
  Average Time Step           :    24.22 sec
  Maximum Time Step           :    60.00 sec
  Percent in Steady State     :     0.00
  Average Iterations per Step :     5.21
  Percent Not Converging      :    27.58
  
  
  ******************
  Node Depth Summary
  ******************
  
  ---------------------------------------------------------------------------------
                                 Average  Maximum  Maximum  Time of Max    Reported
                                   Depth    Depth      HGL   Occurrence   Max Depth
  Node                 Type         Feet     Feet     Feet  days hr:min        Feet
  ---------------------------------------------------------------------------------
  10309                JUNCTION     5.66     8.09   109.69     0  03:20        8.09
  10309a               JUNCTION     2.12     2.70   104.30     0  01:52        2.70
  10309b               JUNCTION     2.06     2.76   104.36     0  01:51        2.76
  10309c               JUNCTION     2.17     2.86   104.46     0  03:00        2.86
  10309d               JUNCTION     2.12     2.75   104.35     0  03:06        2.75
  10309e               JUNCTION     1.80     2.41   104.01     0  03:00        2.41
  15009                JUNCTION     1.75     2.45   113.95     0  01:36        2.45
  15009a               JUNCTION     1.74     2.45   113.95     0  01:36        2.45
  15009b               JUNCTION     1.79     2.45   113.95     0  01:36        2.45
  15009c               JUNCTION     0.96     1.33   112.83     0  03:00        1.33
  15009d               JUNCTION     1.74     2.45   113.95     0  01:36        2.45
  15009e               JUNCTION     0.79     1.09   122.09     0  03:06        1.09
  16009                JUNCTION     5.36     7.69   109.69     0  03:20        7.69
  16009a               JUNCTION     2.40     2.94   104.94     0  01:43        2.94
  16009b               JUNCTION     2.23     2.95   104.95     0  01:43        2.95
  16009c               JUNCTION     2.30     3.05   105.05     0  03:00        3.05
  16009d               JUNCTION     2.30     2.94   104.94     0  03:03        2.94
  16009e               JUNCTION     1.94     2.57   104.57     0  03:00        2.57
  16109                JUNCTION     4.73     6.90   109.70     0  03:20        6.90
  16109a               JUNCTION     2.43     2.96   105.76     0  01:52        2.96
  16109b               JUNCTION     2.12     2.96   105.76     0  01:51        2.96
  16109c               JUNCTION     1.63     2.32   105.12     0  03:00        2.32
  16109d               JUNCTION     2.27     2.96   105.76     0  03:02        2.96
  16109e               JUNCTION     2.07     2.87   105.67     0  03:00        2.87
  80408                JUNCTION    13.29    13.40   133.40     0  00:07       13.40
  80408a               JUNCTION     8.74    13.40   138.00     0  00:28       13.40
  80408b               JUNCTION     7.36    13.40   138.00     0  00:39       13.40
  80408c               JUNCTION     1.50     2.31   126.91     0  00:19        2.31
  80408d               JUNCTION     5.84    12.76   137.36     0  02:13       12.75
  80408e               JUNCTION     7.10    13.40   138.00     0  00:44       13.14
  80608                JUNCTION     0.09     0.15   118.45     0  06:00        0.15
  80608a               JUNCTION    11.02    16.70   135.00     0  00:27       16.70
  80608b               JUNCTION     9.89    16.70   135.00     0  00:39       16.70
  80608c               JUNCTION     2.19     3.14   121.44     0  03:00        3.14
  80608d               JUNCTION     8.78    16.70   135.00     0  02:12       16.70
  80608e               JUNCTION     9.55    16.70   135.00     0  00:44       16.70
  81009                JUNCTION     1.83     2.85   131.05     0  00:32        2.85
  81009a               JUNCTION     1.83     2.85   131.05     0  00:32        2.85
  81009b               JUNCTION     1.83     2.85   131.05     0  00:32        2.85
  81009c               JUNCTION     1.83     2.86   131.06     0  00:32        2.86
  81009d               JUNCTION     1.83     2.85   131.05     0  00:32        2.85
  81009e               JUNCTION     4.11     8.80   137.00     0  00:56        7.11
  81309                JUNCTION     2.14     3.09   120.59     0  01:01        3.09
  81309a               JUNCTION     2.14     3.10   120.60     0  01:01        3.10
  81309b               JUNCTION     2.14     3.10   120.60     0  01:01        3.10
  81309c               JUNCTION     2.39     3.40   120.90     0  03:00        3.40
  81309d               JUNCTION     2.14     3.10   120.60     0  01:01        3.10
  81309e               JUNCTION    11.52    12.50   130.00     0  00:40       12.50
  82308d               JUNCTION    12.30    21.47   133.77     0  02:44       21.44
  82309                JUNCTION     2.91     4.64   116.94     0  01:06        4.64
  82309a               JUNCTION    14.55    25.31   137.61     0  00:27       22.01
  82309b               JUNCTION    13.13    22.21   134.51     0  00:39       21.61
  WeirNode             JUNCTION     1.86     2.68   114.98     0  01:31        2.68
  WetWell              JUNCTION    12.13    20.53   132.83     0  00:44       20.34
  10208                OUTFALL      1.31     1.94    91.84     0  03:20        1.94
  10208b               OUTFALL      1.86     2.53    92.43     0  01:50        2.53
  10208c               OUTFALL      1.96     2.63    92.53     0  03:00        2.63
  10208d               OUTFALL      1.92     2.52    92.42     0  03:05        2.52
  10208e               OUTFALL      1.60     2.18    92.08     0  03:00        2.18
  10208a               OUTFALL      4.50     4.50    94.40     0  00:00        4.50
  82309d               STORAGE     12.29    21.31   133.61     0  03:00       21.31
  
  
  *******************
  Node Inflow Summary
  *******************
  
  -------------------------------------------------------------------------------------------------
                                  Maximum  Maximum                  Lateral       Total        Flow
                                  Lateral    Total  Time of Max      Inflow      Inflow     Balance
                                   Inflow   Inflow   Occurrence      Volume      Volume       Error
  Node                 Type           CFS      CFS  days hr:min    10^6 gal    10^6 gal     Percent
  -------------------------------------------------------------------------------------------------
  10309                JUNCTION      0.00    86.03     0  02:28           0        6.31      26.356
  10309a               JUNCTION      0.00   122.40     0  01:41           0        11.1       2.261
  10309b               JUNCTION      0.00   122.40     0  01:42           0        9.94       0.275
  10309c               JUNCTION      0.00   135.00     0  03:00           0        10.8       0.189
  10309d               JUNCTION      0.00   121.91     0  03:03           0        10.5       0.388
  10309e               JUNCTION      0.00    84.60     0  03:00           0        6.76       0.340
  15009                JUNCTION      0.00    50.96     0  01:14           0        4.02       0.163
  15009a               JUNCTION      0.00    51.05     0  01:14           0        4.02       0.468
  15009b               JUNCTION      0.00    52.92     0  03:15           0        4.22       0.532
  15009c               JUNCTION      0.00   112.90     0  03:00           0        9.13      -0.043
  15009d               JUNCTION      0.00    51.01     0  01:14           0        4.02       0.307
  15009e               JUNCTION      0.00    15.01     0  00:39           0        1.17       0.415
  16009                JUNCTION      0.00    90.89     0  02:27           0        6.88       9.001
  16009a               JUNCTION      0.00   122.43     0  01:37           0        11.2       1.065
  16009b               JUNCTION      0.00   122.43     0  01:38           0        9.97       0.318
  16009c               JUNCTION      0.00   135.00     0  03:00           0        10.9       0.003
  16009d               JUNCTION      0.00   121.92     0  03:02           0        10.6       0.506
  16009e               JUNCTION      0.00    84.60     0  03:00           0        6.78       0.389
  16109                JUNCTION      0.00    44.24     0  01:33           0        3.22       0.000
  16109a               JUNCTION      0.00    71.99     0  01:53           0        7.35       0.000
  16109b               JUNCTION      0.00    72.00     0  01:50           0         5.8       0.000
  16109c               JUNCTION      0.00    25.23     0  00:29           0        1.79       0.000
  16109d               JUNCTION      0.00    71.95     0  03:00           0        6.59       0.000
  16109e               JUNCTION      0.00    69.60     0  01:47           0        5.63       0.000
  80408                JUNCTION     66.00    66.00     0  00:16        7.02        7.01       1.325
  80408a               JUNCTION     65.00    65.00     0  00:16        6.86        6.85       0.272
  80408b               JUNCTION     45.00    45.00     0  00:16        3.63        3.62      -0.218
  80408c               JUNCTION     45.00    45.00     0  00:16        3.63        3.62      -0.149
  80408d               JUNCTION     45.00    45.00     0  00:16        3.63        3.62      -0.167
  80408e               JUNCTION     45.00    45.00     0  00:16        3.63        3.62      -0.165
  80608                JUNCTION      0.00     0.07     0  00:01           0     0.00952     102.357
  80608a               JUNCTION      0.00    65.68     0  00:19           0        5.84       3.020
  80608b               JUNCTION      0.00    45.92     0  00:21           0        3.62       1.487
  80608c               JUNCTION      0.00    45.92     0  00:21           0        3.63       0.340
  80608d               JUNCTION      0.00    45.83     0  00:22           0        3.63       1.863
  80608e               JUNCTION      0.00    45.92     0  00:21           0        3.63       1.658
  81009                JUNCTION     50.00    50.00     0  00:16        4.03        4.02      -0.387
  81009a               JUNCTION     50.00    50.00     0  00:16        4.03        4.02      -0.387
  81009b               JUNCTION     50.00    50.00     0  00:16        4.03        4.02      -0.387
  81009c               JUNCTION     50.00    50.00     0  00:16        4.03        4.02      -0.427
  81009d               JUNCTION     50.00    50.00     0  00:16        4.03        4.02      -0.387
  81009e               JUNCTION     50.00    50.00     0  00:16        4.03        4.02       2.118
  81309                JUNCTION      0.00    53.73     0  00:40           0        4.04       0.475
  81309a               JUNCTION      0.00    53.81     0  00:41           0        4.04       0.472
  81309b               JUNCTION      0.00    53.75     0  00:40           0        4.04       0.447
  81309c               JUNCTION      0.00    53.95     0  00:41           0        4.04       1.078
  81309d               JUNCTION      0.00    53.75     0  00:40           0        4.04       0.475
  81309e               JUNCTION      0.00    53.62     0  00:32           0        3.94      15.979
  82308d               JUNCTION      0.00    17.26     0  04:48           0      0.0239       0.000
  82309                JUNCTION     40.00    40.05     0  03:00        3.23        3.22       0.152
  82309a               JUNCTION     40.00    98.99     0  00:25        3.23        7.53       2.512
  82309b               JUNCTION     40.00    83.66     0  00:32        3.23        5.94      -0.859
  WeirNode             JUNCTION     40.00    85.00     0  03:00        3.23        6.83      -0.261
  WetWell              JUNCTION     40.00    84.62     0  01:47        3.23        6.75      -0.798
  10208                OUTFALL       0.00    62.83     0  03:20           0        4.98       0.000
  10208b               OUTFALL       0.00   122.29     0  01:50           0        9.91       0.000
  10208c               OUTFALL       0.00   134.95     0  03:00           0        10.8       0.000
  10208d               OUTFALL       0.00   121.83     0  03:05           0        10.5       0.000
  10208e               OUTFALL       0.00    84.56     0  03:00           0        6.73       0.000
  10208a               OUTFALL       0.00   122.26     0  01:52           0        10.9       0.000
  82309d               STORAGE      40.00    85.55     0  00:50        3.23        6.59      -0.434
  
  
  **********************
  Node Surcharge Summary
  **********************
  
  Surcharging occurs when water rises above the top of the highest conduit.
  ---------------------------------------------------------------------
                                               Max. Height   Min. Depth
                                   Hours       Above Crown    Below Rim
  Node                 Type      Surcharged           Feet         Feet
  ---------------------------------------------------------------------
  16109                JUNCTION        1.80          0.904       15.296
  80408                JUNCTION        5.89          9.400        0.000
  80408a               JUNCTION        2.69          9.400        0.000
  80408b               JUNCTION        2.43          9.400        0.000
  80408d               JUNCTION        2.15          8.761        0.639
  80408e               JUNCTION        2.31          9.400        0.000
  80608a               JUNCTION        2.79         12.700        0.000
  80608b               JUNCTION        2.59         12.700        0.000
  80608d               JUNCTION        2.89         12.700        0.000
  80608e               JUNCTION        2.50         12.700        0.000
  81009e               JUNCTION        2.13          4.300        0.000
  81309e               JUNCTION        5.32          8.000        0.000
  82308d               JUNCTION        4.53         19.466       21.234
  82309a               JUNCTION        2.91         19.113       17.387
  82309b               JUNCTION        2.72         16.010       20.490
  WetWell              JUNCTION        2.67         14.326        0.474
  
  
  *********************
  Node Flooding Summary
  *********************
  
  Flooding refers to all water that overflows a node, whether it ponds or not.
  --------------------------------------------------------------------------
                                                             Total   Maximum
                                 Maximum   Time of Max       Flood    Ponded
                        Hours       Rate    Occurrence      Volume     Depth
  Node                 Flooded       CFS   days hr:min    10^6 gal      Feet
  --------------------------------------------------------------------------
  80408                   5.89     65.94      0  00:17       6.925     0.000
  80408a                  2.62     41.79      0  00:28       0.997     0.000
  80408b                  0.02     20.85      0  00:39       0.005     0.000
  80408e                  0.01      1.84      0  00:44       0.000     0.000
  80608a                  2.65     35.04      0  00:27       1.353     0.000
  80608b                  2.39     18.43      0  00:40       0.849     0.000
  80608d                  0.86     12.70      0  03:00       0.207     0.000
  80608e                  2.26      4.97      0  00:45       0.035     0.000
  81009e                  0.01      8.11      0  00:56       0.002     0.000
  81309e                  2.90     49.99      0  00:57       3.394     0.000
  
  
  **********************
  Storage Volume Summary
  **********************
  
  --------------------------------------------------------------------------------------------------
                         Average     Avg  Evap Exfil       Maximum     Max    Time of Max    Maximum
                          Volume    Pcnt  Pcnt  Pcnt        Volume    Pcnt     Occurrence    Outflow
  Storage Unit          1000 ft3    Full  Loss  Loss      1000 ft3    Full    days hr:min        CFS
  --------------------------------------------------------------------------------------------------
  82309d                   9.833      29     0     0        17.046      50       0  03:00      71.95
  
  
  ***********************
  Outfall Loading Summary
  ***********************
  
  -----------------------------------------------------------
                         Flow       Avg       Max       Total
                         Freq      Flow      Flow      Volume
  Outfall Node           Pcnt       CFS       CFS    10^6 gal
  -----------------------------------------------------------
  10208                 93.95     33.53     62.83       4.984
  10208b                95.40     81.13    122.29       9.909
  10208c                98.99     88.17    134.95      10.803
  10208d                95.18     81.92    121.83      10.469
  10208e                95.63     55.23     84.56       6.731
  10208a                94.62     85.77    122.26      10.858
  -----------------------------------------------------------
  System                95.63    425.74    644.15      53.754
  
  
  ********************
  Link Flow Summary
  ********************
  
  -----------------------------------------------------------------------------
                                 Maximum  Time of Max   Maximum    Max/    Max/
                                  |Flow|   Occurrence   |Veloc|    Full    Full
  Link                 Type          CFS  days hr:min    ft/sec    Flow   Depth
  -----------------------------------------------------------------------------
  1030e                CONDUIT     84.56     0  03:00      5.35    0.03    0.26
  1030                 CONDUIT     62.83     0  03:20      0.83    0.26    0.56
  1030a                CONDUIT    122.26     0  01:52      3.14    0.04    0.40
  1030b                CONDUIT    122.29     0  01:50      5.84    0.04    0.29
  1030c                CONDUIT    134.95     0  03:00      5.98    0.04    0.30
  1030d                CONDUIT    121.83     0  03:05      5.83    0.04    0.29
  1570                 CONDUIT     50.45     0  01:36      4.27    0.41    0.72
  1570a                CONDUIT     50.48     0  01:36      4.36    0.41    0.49
  1570b                CONDUIT     50.47     0  01:36      4.44    0.41    0.49
  1570c                CONDUIT    112.90     0  03:00     12.77    0.13    0.40
  1570d                CONDUIT     50.47     0  01:36      4.48    0.41    0.49
  1570e                CONDUIT     15.01     0  03:06      2.41    0.09    0.33
  1600                 CONDUIT     40.87     0  02:27      4.16    0.28    1.00
  1600a                CONDUIT     71.99     0  01:57      6.05    0.49    0.49
  1600b                CONDUIT     71.99     0  01:57      5.43    0.49    0.49
  1600c                CONDUIT     23.41     0  03:10      2.05    0.16    0.45
  1600d                CONDUIT     71.92     0  03:02      5.20    0.49    0.49
  1600e                CONDUIT     69.59     0  03:00      5.63    0.47    0.45
  1602                 CONDUIT     44.24     0  01:33      2.74    1.02    0.89
  1602a                CONDUIT     71.99     0  01:53      4.33    1.66    0.80
  1602b                CONDUIT     72.00     0  01:50      4.33    1.66    0.80
  1602c                CONDUIT     22.10     0  03:00      2.72    0.51    0.50
  1602d                CONDUIT     71.95     0  03:00      4.29    1.66    0.80
  1602e                CONDUIT     69.60     0  01:47      4.22    1.60    0.79
  1630                 CONDUIT     86.03     0  02:28      4.66    0.04    0.88
  1630a                CONDUIT    122.40     0  01:41      8.60    0.05    0.31
  1630b                CONDUIT    122.40     0  01:42      5.80    0.05    0.32
  1630c                CONDUIT    135.00     0  03:00      7.54    0.06    0.33
  1630d                CONDUIT    121.91     0  03:03      5.52    0.05    0.32
  1630e                CONDUIT     84.60     0  03:00      5.23    0.04    0.28
  8040                 CONDUIT      0.07     0  00:01      0.17    1.72    0.52
  8040a                CONDUIT     65.68     0  00:19      7.81    0.89    1.00
  8040b                CONDUIT     45.92     0  00:21      7.31    0.62    1.00
  8040c                CONDUIT     45.92     0  00:21      7.31    0.62    0.68
  8040d                CONDUIT     45.83     0  00:22      7.30    0.62    1.00
  8040e                CONDUIT     45.92     0  00:21      7.32    0.62    1.00
  8060                 CONDUIT      0.05     0  03:20      0.67    0.00    0.31
  8060a                CONDUIT     58.99     0  00:25      5.40    1.11    1.00
  8060b                CONDUIT     43.72     0  03:14      4.82    0.82    1.00
  8060c                CONDUIT     45.00     0  03:00      5.27    0.84    0.64
  8060d                CONDUIT     45.54     0  00:50      4.91    0.85    1.00
  8060e                CONDUIT     45.59     0  03:07      4.85    0.86    1.00
  8100                 CONDUIT     53.73     0  00:40      6.57    0.69    0.64
  8100a                CONDUIT     53.81     0  00:41      6.57    0.69    0.64
  8100b                CONDUIT     53.75     0  00:40      6.57    0.69    0.64
  8100c                CONDUIT     53.95     0  00:41      6.68    0.69    0.67
  8100d                CONDUIT     53.75     0  00:40      6.57    0.69    0.64
  8100e                CONDUIT     53.61     0  00:32      6.58    0.69    1.00
  8130                 CONDUIT     50.96     0  01:14      5.60    0.72    0.61
  8130a                CONDUIT     51.05     0  01:14      5.69    0.72    0.61
  8130b                CONDUIT     51.03     0  01:14      5.62    0.72    0.61
  8130c                CONDUIT     50.00     0  03:00      5.99    0.71    0.53
  8130d                CONDUIT     51.01     0  01:14      5.60    0.72    0.61
  8130e                CONDUIT      0.01     0  00:04      0.46    0.00    0.62
  Pump1                PUMP        15.00     0  00:39              1.00
  OR1@82309d-82308d    ORIFICE     17.26     0  04:48                      1.00
  OR1@82309b-15009b    ORIFICE     11.58     0  03:15                      1.00
  WEIR                 WEIR        62.93     0  01:18                      0.33
  
  
  ***************************
  Flow Classification Summary
  ***************************
  
  -------------------------------------------------------------------------------------
                      Adjusted    ---------- Fraction of Time in Flow Class ---------- 
                       /Actual         Up    Down  Sub   Sup   Up    Down  Norm  Inlet 
  Conduit               Length    Dry  Dry   Dry   Crit  Crit  Crit  Crit  Ltd   Ctrl  
  -------------------------------------------------------------------------------------
  1030e                   1.00   0.01  0.00  0.00  0.99  0.00  0.00  0.00  0.00  0.00
  1030                    1.00   0.02  0.00  0.00  0.98  0.00  0.00  0.00  0.00  0.00
  1030a                   1.00   0.00  0.03  0.00  0.97  0.00  0.00  0.00  0.93  0.00
  1030b                   1.00   0.02  0.00  0.00  0.98  0.00  0.00  0.00  0.00  0.00
  1030c                   1.00   0.00  0.00  0.00  1.00  0.00  0.00  0.00  0.00  0.00
  1030d                   1.00   0.02  0.00  0.00  0.98  0.00  0.00  0.00  0.00  0.00
  1570                    1.00   0.00  0.00  0.00  1.00  0.00  0.00  0.00  0.91  0.00
  1570a                   1.00   0.00  0.00  0.00  1.00  0.00  0.00  0.00  0.95  0.00
  1570b                   1.00   0.00  0.00  0.00  1.00  0.00  0.00  0.00  0.94  0.00
  1570c                   5.02   0.00  0.00  0.00  0.25  0.75  0.00  0.00  1.00  0.00
  1570d                   1.00   0.00  0.00  0.00  1.00  0.00  0.00  0.00  0.92  0.00
  1570e                   1.00   0.00  0.00  0.00  0.98  0.02  0.00  0.00  0.93  0.00
  1600                    1.00   0.00  0.00  0.00  0.98  0.02  0.00  0.00  0.02  0.00
  1600a                   1.00   0.00  0.00  0.00  0.97  0.02  0.00  0.00  0.34  0.00
  1600b                   1.00   0.00  0.00  0.00  0.97  0.03  0.00  0.00  0.28  0.00
  1600c                   1.00   0.00  0.00  0.00  1.00  0.00  0.00  0.00  0.38  0.00
  1600d                   1.00   0.00  0.00  0.00  0.97  0.03  0.00  0.00  0.29  0.00
  1600e                   1.00   0.00  0.00  0.00  0.98  0.02  0.00  0.00  0.42  0.00
  1602                    1.00   0.00  0.00  0.00  1.00  0.00  0.00  0.00  0.60  0.00
  1602a                   1.00   0.00  0.00  0.00  1.00  0.00  0.00  0.00  0.00  0.00
  1602b                   1.00   0.00  0.00  0.00  1.00  0.00  0.00  0.00  0.33  0.00
  1602c                   1.00   0.00  0.00  0.00  1.00  0.00  0.00  0.00  0.47  0.00
  1602d                   1.00   0.00  0.00  0.00  1.00  0.00  0.00  0.00  0.00  0.00
  1602e                   1.00   0.00  0.04  0.00  0.95  0.00  0.00  0.00  0.20  0.00
  1630                    1.00   0.00  0.00  0.00  0.96  0.03  0.00  0.00  0.00  0.00
  1630a                   1.00   0.00  0.00  0.00  0.93  0.07  0.00  0.00  0.00  0.00
  1630b                   1.00   0.00  0.00  0.00  0.94  0.05  0.00  0.00  0.24  0.00
  1630c                   1.00   0.00  0.00  0.00  0.98  0.02  0.00  0.00  0.31  0.00
  1630d                   1.00   0.00  0.00  0.00  0.95  0.05  0.00  0.00  0.14  0.00
  1630e                   1.00   0.00  0.00  0.00  0.95  0.05  0.00  0.00  0.27  0.00
  8040                    1.00   0.00  0.00  0.00  1.00  0.00  0.00  0.00  0.00  0.00
  8040a                   1.00   0.00  0.00  0.00  0.98  0.02  0.00  0.00  0.48  0.00
  8040b                   1.00   0.00  0.00  0.00  0.98  0.02  0.00  0.00  0.51  0.00
  8040c                   1.00   0.00  0.00  0.00  0.98  0.02  0.00  0.00  0.94  0.00
  8040d                   1.00   0.00  0.00  0.00  0.98  0.02  0.00  0.00  0.49  0.00
  8040e                   1.00   0.00  0.00  0.00  0.98  0.02  0.00  0.00  0.52  0.00
  8060                    1.00   0.00  0.00  0.00  0.68  0.00  0.00  0.32  0.51  0.00
  8060a                   1.00   0.00  0.00  0.00  0.76  0.00  0.00  0.24  0.08  0.00
  8060b                   1.00   0.00  0.00  0.00  0.71  0.00  0.00  0.28  0.08  0.00
  8060c                   1.00   0.00  0.00  0.00  0.00  0.00  0.00  1.00  0.00  0.00
  8060d                   1.00   0.00  0.00  0.00  0.82  0.00  0.00  0.17  0.12  0.00
  8060e                   1.00   0.00  0.00  0.00  0.72  0.00  0.00  0.27  0.10  0.00
  8100                    1.00   0.00  0.00  0.00  0.98  0.02  0.00  0.00  0.89  0.00
  8100a                   1.00   0.00  0.00  0.00  0.98  0.02  0.00  0.00  0.89  0.00
  8100b                   1.00   0.00  0.00  0.00  0.98  0.02  0.00  0.00  0.89  0.00
  8100c                   1.00   0.00  0.00  0.00  0.98  0.02  0.00  0.00  0.89  0.00
  8100d                   1.00   0.00  0.00  0.00  0.98  0.02  0.00  0.00  0.89  0.00
  8100e                   1.00   0.00  0.00  0.00  0.98  0.02  0.00  0.00  0.03  0.00
  8130                    1.00   0.00  0.00  0.00  0.98  0.02  0.00  0.00  0.45  0.00
  8130a                   1.00   0.00  0.00  0.00  0.97  0.02  0.00  0.00  0.45  0.00
  8130b                   1.00   0.00  0.00  0.00  0.97  0.02  0.00  0.00  0.45  0.00
  8130c                   1.00   0.00  0.00  0.00  0.95  0.04  0.00  0.00  0.05  0.00
  8130d                   1.00   0.00  0.00  0.00  0.98  0.02  0.00  0.00  0.45  0.00
  8130e                   1.00   0.00  0.00  0.00  1.00  0.00  0.00  0.00  0.07  0.00
  
  
  *************************
  Conduit Surcharge Summary
  *************************
  
  ----------------------------------------------------------------------------
                                                           Hours        Hours 
                         --------- Hours Full --------   Above Full   Capacity
  Conduit                Both Ends  Upstream  Dnstream   Normal Flow   Limited
  ----------------------------------------------------------------------------
  1570                        0.01      0.01      3.62      0.01         0.01
  1600                        1.80      1.80      2.90      0.01         0.01
  1602                        0.01      0.01      3.20      0.38         0.01
  1602a                       0.01      3.18      0.01      3.12         0.01
  1602b                       0.01      2.93      0.01      2.84         0.01
  1602d                       0.01      3.67      0.01      3.52         0.01
  1602e                       0.01      2.92      0.01      2.80         0.01
  8040                        0.01      5.89      0.01      5.91         0.01
  8040a                       2.69      2.69      2.79      0.01         0.01
  8040b                       2.43      2.43      2.58      0.01         0.01
  8040d                       2.15      2.15      2.89      0.01         0.01
  8040e                       2.31      2.31      2.50      0.01         0.01
  8060a                       2.79      2.79      2.90      0.06         0.01
  8060b                       2.58      2.58      2.72      0.01         0.01
  8060d                       2.89      2.89      3.47      0.01         0.01
  8060e                       2.50      2.50      2.66      0.01         0.01
  8100e                       2.13      2.13      5.32      0.01         0.01
  8130e                       0.01      0.01      5.32      0.01         0.01
  
  
  ***************
  Pumping Summary
  ***************
  
  ---------------------------------------------------------------------------------------------------------
                                                  Min       Avg       Max     Total     Power    % Time Off
                        Percent   Number of      Flow      Flow      Flow    Volume     Usage    Pump Curve
  Pump                 Utilized   Start-Ups       CFS       CFS       CFS  10^6 gal     Kw-hr    Low   High
  ---------------------------------------------------------------------------------------------------------
  Pump1                  100.00           1      0.00      9.51     15.00     1.174     33.28    0.0   42.3
  

  Analysis begun on:  Wed Jan 02 04:51:24 2019
  Analysis ended on:  Wed Jan 02 04:51:24 2019
  Total elapsed time: < 1 sec