
  EPA STORM WATER MANAGEMENT MODEL - VERSION 5.1 (Build 5.1.012)
  --------------------------------------------------------------

  
  *********************************************************
  NOTE: The summary statistics displayed in this report are
  based on results found at every computational time step,  
  not just on results from each reporting time step.
  *********************************************************
  
  ****************
  Analysis Options
  ****************
  Flow Units ............... CFS
  Process Models:
    Rainfall/Runoff ........ NO
    RDII ................... NO
    Snowmelt ............... NO
    Groundwater ............ NO
    Flow Routing ........... YES
    Ponding Allowed ........ YES
    Water Quality .......... NO
  Flow Routing Method ...... DYNWAVE
  Starting Date ............ 01/01/2002 00:00:00
  Ending Date .............. 01/01/2002 23:00:00
  Antecedent Dry Days ...... 5.0
  Report Time Step ......... 00:01:00
  Routing Time Step ........ 10.00 sec
  Variable Time Step ....... YES
  Maximum Trials ........... 8
  Number of Threads ........ 1
  Head Tolerance ........... 0.000100 ft
  
  
  **************************        Volume        Volume
  Flow Routing Continuity        acre-feet      10^6 gal
  **************************     ---------     ---------
  Dry Weather Inflow .......       135.370        44.112
  Wet Weather Inflow .......         0.000         0.000
  Groundwater Inflow .......         0.000         0.000
  RDII Inflow ..............         0.000         0.000
  External Inflow ..........         0.000         0.000
  External Outflow .........        39.051        12.725
  Flooding Loss ............        98.247        32.015
  Evaporation Loss .........         0.000         0.000
  Exfiltration Loss ........         0.000         0.000
  Initial Stored Volume ....         0.029         0.010
  Final Stored Volume ......         0.082         0.027
  Continuity Error (%) .....        -1.463
  
  
  *************************
  Highest Continuity Errors
  *************************
  Node 40 (-25.51%)
  Node 52 (-19.34%)
  Node 24 (4.34%)
  Node 18 (2.56%)
  Node 44 (2.53%)
  
  
  ***************************
  Time-Step Critical Elements
  ***************************
  Link 57 (20.30%)
  Link 45 (16.60%)
  Node 52 (15.02%)
  Node 40 (14.41%)
  Link 25 (3.06%)
  
  
  ********************************
  Highest Flow Instability Indexes
  ********************************
  Link 57 (29)
  Link 17 (27)
  Link 19 (24)
  Link 47 (22)
  Link 45 (17)
  
  
  *************************
  Routing Time Step Summary
  *************************
  Minimum Time Step           :     0.15 sec
  Average Time Step           :     4.95 sec
  Maximum Time Step           :    10.00 sec
  Percent in Steady State     :    -0.00
  Average Iterations per Step :     8.00
  Percent Not Converging      :    99.99
  
  
  ******************
  Node Depth Summary
  ******************
  
  ---------------------------------------------------------------------------------
                                 Average  Maximum  Maximum  Time of Max    Reported
                                   Depth    Depth      HGL   Occurrence   Max Depth
  Node                 Type         Feet     Feet     Feet  days hr:min        Feet
  ---------------------------------------------------------------------------------
  10                   JUNCTION     6.66    20.13    34.59     0  02:48       16.90
  12                   JUNCTION     8.34    19.03    31.30     0  03:06       15.10
  16                   JUNCTION     7.72    18.30    31.84     0  09:24       16.79
  18                   JUNCTION     8.57    19.45    32.12     0  09:24       18.42
  20                   JUNCTION     7.54    20.26    33.58     0  03:06       16.47
  22                   JUNCTION     8.83     8.85    20.00     0  00:02        8.85
  26                   JUNCTION    17.75    36.58    51.34     0  07:00       31.47
  30                   JUNCTION    19.06    39.03    52.20     0  07:00       33.07
  36                   JUNCTION     1.69     1.69    20.00     0  00:00        1.69
  40                   JUNCTION     3.96    19.24    36.84     0  22:01       17.08
  42                   JUNCTION     8.51    22.82    35.39     0  03:06       19.27
  44                   JUNCTION     8.46    23.96    36.43     0  03:06       18.96
  46                   JUNCTION     8.35    22.19    34.56     0  03:06       17.04
  48                   JUNCTION     1.29     1.29    20.00     0  00:00        1.29
  50                   JUNCTION     2.08     2.08    20.00     0  00:00        2.08
  52                   JUNCTION     2.33    12.84    29.98     0  12:30       11.60
  14                   OUTFALL      1.00     1.00    11.10     0  00:00        1.00
  24                   DIVIDER      1.00     1.00    15.70     0  00:00        1.00
  8000                 STORAGE      1.57     2.13    15.77     0  06:02        2.12
  8002                 STORAGE      1.37     2.11    19.81     0  21:35        2.10
  8004                 STORAGE      1.28     2.18    19.18     0  00:52        2.16
  9000                 STORAGE      1.51     2.04    15.68     0  03:52        2.03
  
  
  *******************
  Node Inflow Summary
  *******************
  
  -------------------------------------------------------------------------------------------------
                                  Maximum  Maximum                  Lateral       Total        Flow
                                  Lateral    Total  Time of Max      Inflow      Inflow     Balance
                                   Inflow   Inflow   Occurrence      Volume      Volume       Error
  Node                 Type           CFS      CFS  days hr:min    10^6 gal    10^6 gal     Percent
  -------------------------------------------------------------------------------------------------
  10                   JUNCTION      0.00    10.51     0  00:02           0        1.11       2.698
  12                   JUNCTION      0.00     8.79     0  16:55           0        2.11       0.744
  16                   JUNCTION      0.00    21.00     0  00:00           0         1.5       0.950
  18                   JUNCTION      0.00    21.81     0  00:02           0        1.73       2.629
  20                   JUNCTION      0.00     4.71     0  16:55           0        1.17       1.769
  22                   JUNCTION     18.00    44.30     0  07:23         6.3        15.2       0.071
  26                   JUNCTION      0.00    21.00     0  00:00           0       0.968       0.061
  30                   JUNCTION     18.00    18.26     0  07:00         6.3        7.27       0.016
  36                   JUNCTION     18.00    18.00     0  07:00         6.3         6.3       0.392
  40                   JUNCTION      0.00    42.00     0  00:00           0        2.91     -20.324
  42                   JUNCTION      0.00     3.33     0  10:00           0       0.813       1.481
  44                   JUNCTION      0.00     3.66     0  00:01           0       0.856       2.594
  46                   JUNCTION      0.00     4.26     0  00:01           0       0.887       1.429
  48                   JUNCTION     18.00    18.00     0  07:00         6.3         6.3       0.018
  50                   JUNCTION     18.00    18.00     0  07:00         6.3        6.35       0.279
  52                   JUNCTION      0.00    42.00     0  00:00           0        3.85     -16.209
  14                   OUTFALL      18.00    28.38     0  07:00         6.3        12.7       0.000
  24                   DIVIDER      18.00    59.02     0  07:13         6.3        14.6       4.537
  8000                 STORAGE       0.00     2.59     0  01:03           0       0.971       0.048
  8002                 STORAGE       0.00     6.37     0  15:32           0        2.92       0.185
  8004                 STORAGE       0.00     7.45     0  22:20           0        3.84      -0.468
  9000                 STORAGE       0.00     3.59     0  08:24           0         1.4       0.700
  
  
  **********************
  Node Surcharge Summary
  **********************
  
  Surcharging occurs when water rises above the top of the highest conduit.
  ---------------------------------------------------------------------
                                               Max. Height   Min. Depth
                                   Hours       Above Crown    Below Rim
  Node                 Type      Surcharged           Feet         Feet
  ---------------------------------------------------------------------
  10                   JUNCTION       22.83         19.134        0.000
  12                   JUNCTION       22.98         18.028        0.000
  16                   JUNCTION       22.38         16.301        0.000
  18                   JUNCTION       22.95         17.453        0.000
  20                   JUNCTION       22.97         19.263        0.000
  22                   JUNCTION       22.99          7.852        0.000
  26                   JUNCTION       22.98         35.576        0.000
  30                   JUNCTION       22.99         38.028        0.000
  36                   JUNCTION       23.00          0.693        0.000
  40                   JUNCTION        8.92         18.245        0.000
  42                   JUNCTION       22.96         21.818        0.000
  44                   JUNCTION       22.97         22.962        0.000
  46                   JUNCTION       22.98         21.189        0.000
  48                   JUNCTION       23.00          0.286        0.000
  50                   JUNCTION       23.00          1.083        0.000
  52                   JUNCTION        8.52         11.841        0.000
  24                   DIVIDER        22.99          0.000        0.000
  
  
  *********************
  Node Flooding Summary
  *********************
  
  Flooding refers to all water that overflows a node, whether it ponds or not.
  --------------------------------------------------------------------------
                                                             Total   Maximum
                                 Maximum   Time of Max       Flood    Ponded
                        Hours       Rate    Occurrence      Volume     Depth
  Node                 Flooded       CFS   days hr:min    10^6 gal      Feet
  --------------------------------------------------------------------------
  22                     22.75     33.88      0  07:23       8.361     0.000
  36                     23.00     15.03      0  07:05       3.381     0.000
  48                     23.00     18.00      0  08:00       6.255     0.000
  50                     22.76     12.92      0  07:08       2.509     0.000
  24                     22.99     56.26      0  07:47      12.188     0.000
  
  
  **********************
  Storage Volume Summary
  **********************
  
  --------------------------------------------------------------------------------------------------
                         Average     Avg  Evap Exfil       Maximum     Max    Time of Max    Maximum
                          Volume    Pcnt  Pcnt  Pcnt        Volume    Pcnt     Occurrence    Outflow
  Storage Unit          1000 ft3    Full  Loss  Loss      1000 ft3    Full    days hr:min        CFS
  --------------------------------------------------------------------------------------------------
  8000                     0.436       7     0     0         0.592      10       0  06:02      21.00
  8002                     0.381       6     0     0         0.588      10       0  21:35      42.00
  8004                     0.357       6     0     0         0.607      10       0  00:52      42.00
  9000                     0.420       7     0     0         0.567       9       0  03:52      21.00
  
  
  ***********************
  Outfall Loading Summary
  ***********************
  
  -----------------------------------------------------------
                         Flow       Avg       Max       Total
                         Freq      Flow      Flow      Volume
  Outfall Node           Pcnt       CFS       CFS    10^6 gal
  -----------------------------------------------------------
  14                   100.00     20.54     28.38      12.724
  -----------------------------------------------------------
  System               100.00     20.54     28.38      12.724
  
  
  ********************
  Link Flow Summary
  ********************
  
  -----------------------------------------------------------------------------
                                 Maximum  Time of Max   Maximum    Max/    Max/
                                  |Flow|   Occurrence   |Veloc|    Full    Full
  Link                 Type          CFS  days hr:min    ft/sec    Flow   Depth
  -----------------------------------------------------------------------------
  11                   CONDUIT      4.71     0  16:55      6.00    1.06    1.00
  13                   CONDUIT      9.03     0  16:55     11.50    1.85    1.00
  17                   CONDUIT     17.99     0  00:02      6.91    0.66    1.00
  19                   CONDUIT      7.65     0  00:02     11.46    0.99    1.00
  21                   CONDUIT      4.93     0  16:55      6.28    1.11    1.00
  23                   CONDUIT     10.38     0  00:19     13.22    2.91    1.00
  25                   CONDUIT      3.59     0  08:24      4.59    1.08    1.00
  31                   CONDUIT      3.42     0  00:52      5.57    0.71    1.00
  33                   CONDUIT     18.63     0  07:00     23.73    3.91    1.00
  35                   CONDUIT      2.59     0  01:03      3.31    1.02    1.00
  43                   CONDUIT     17.52     0  11:54     22.30    2.13    1.00
  45                   CONDUIT      6.37     0  15:32      8.14    1.51    1.00
  47                   CONDUIT      3.33     0  10:00      4.26    2.84    1.00
  49                   CONDUIT      3.44     0  16:55      5.38    2.80    1.00
  51                   CONDUIT      3.66     0  16:55      5.14    3.46    1.00
  53                   CONDUIT      4.26     0  00:01      6.35    2.93    1.00
  55                   CONDUIT      4.48     0  00:00      6.67    0.99    1.00
  57                   CONDUIT      7.45     0  22:20      9.50    1.52    1.00
  59                   CONDUIT     24.34     0  02:02     30.99    2.13    1.00
  5000                 PUMP        21.00     0  00:00              1.00
  5002                 PUMP        21.00     0  00:00              1.00
  5004                 PUMP        21.00     0  00:00              1.00
  5006                 PUMP        21.00     0  00:00              1.00
  5008                 PUMP        21.00     0  00:00              1.00
  5010                 PUMP        21.00     0  00:00              1.00
  
  
  ***************************
  Flow Classification Summary
  ***************************
  
  -------------------------------------------------------------------------------------
                      Adjusted    ---------- Fraction of Time in Flow Class ---------- 
                       /Actual         Up    Down  Sub   Sup   Up    Down  Norm  Inlet 
  Conduit               Length    Dry  Dry   Dry   Crit  Crit  Crit  Crit  Ltd   Ctrl  
  -------------------------------------------------------------------------------------
  11                      1.00   0.00  0.00  0.00  1.00  0.00  0.00  0.00  0.00  0.00
  13                      1.00   0.00  0.00  0.00  1.00  0.00  0.00  0.00  0.00  0.00
  17                      1.00   0.00  0.00  0.00  1.00  0.00  0.00  0.00  0.00  0.00
  19                      1.00   0.00  0.00  0.00  1.00  0.00  0.00  0.00  0.00  0.00
  21                      1.00   0.00  0.00  0.00  1.00  0.00  0.00  0.00  0.00  0.00
  23                      1.00   0.00  0.00  0.00  1.00  0.00  0.00  0.00  0.00  0.00
  25                      1.00   0.00  0.00  0.00  1.00  0.00  0.00  0.00  0.00  0.00
  31                      1.00   0.00  0.00  0.00  1.00  0.00  0.00  0.00  0.00  0.00
  33                      1.00   0.00  0.00  0.00  1.00  0.00  0.00  0.00  0.00  0.00
  35                      1.00   0.00  0.00  0.00  1.00  0.00  0.00  0.00  0.00  0.00
  43                      1.00   0.00  0.01  0.00  0.88  0.11  0.00  0.00  0.68  0.00
  45                      1.00   0.00  0.00  0.00  0.86  0.14  0.00  0.00  0.00  0.00
  47                      1.00   0.00  0.00  0.00  1.00  0.00  0.00  0.00  0.00  0.00
  49                      1.00   0.00  0.00  0.00  1.00  0.00  0.00  0.00  0.00  0.00
  51                      1.00   0.00  0.00  0.00  1.00  0.00  0.00  0.00  0.00  0.00
  53                      1.00   0.00  0.00  0.00  1.00  0.00  0.00  0.00  0.00  0.00
  55                      1.00   0.00  0.00  0.00  1.00  0.00  0.00  0.00  0.00  0.00
  57                      1.00   0.00  0.00  0.00  0.68  0.32  0.00  0.00  0.00  0.00
  59                      1.00   0.00  0.01  0.00  0.87  0.12  0.00  0.00  0.69  0.00
  
  
  *************************
  Conduit Surcharge Summary
  *************************
  
  ----------------------------------------------------------------------------
                                                           Hours        Hours 
                         --------- Hours Full --------   Above Full   Capacity
  Conduit                Both Ends  Upstream  Dnstream   Normal Flow   Limited
  ----------------------------------------------------------------------------
  11                         22.80     22.80     22.97      0.09         2.00
  13                         22.98     22.98     22.99      6.57         8.26
  17                         22.25     22.25     22.95      0.01         0.58
  19                         22.80     22.80     22.96      0.01         0.02
  21                         22.97     22.97     22.98      0.21         2.28
  23                         22.99     22.99     22.99     22.99        22.99
  25                         21.42     22.99     21.43      1.39         0.01
  31                         22.98     22.98     22.99      0.01         0.10
  33                         22.99     22.99     22.99     22.98        22.95
  35                         22.89     22.99     22.90      0.09         0.01
  43                          7.13      7.13     22.99      8.32         7.11
  45                         19.31     23.00     19.31     14.89        10.63
  47                         22.96     22.96     22.96      8.83         9.68
  49                         22.96     22.96     22.97      9.90        10.13
  51                         22.97     22.97     22.98     12.22        11.48
  53                         22.98     22.98     22.98      9.85        10.34
  55                         23.00     23.00     23.00      0.01         0.01
  57                         17.22     23.00     17.22     22.97        15.98
  59                          6.92      6.92     22.99      8.52         6.92
  
  
  ***************
  Pumping Summary
  ***************
  
  ---------------------------------------------------------------------------------------------------------
                                                  Min       Avg       Max     Total     Power    % Time Off
                        Percent   Number of      Flow      Flow      Flow    Volume     Usage    Pump Curve
  Pump                 Utilized   Start-Ups       CFS       CFS       CFS  10^6 gal     Kw-hr    Low   High
  ---------------------------------------------------------------------------------------------------------
  5000                    31.86         396      0.00      6.70     21.00     1.427     44.79    0.0    0.1
  5002                    77.95          42      0.00      2.01     21.00     0.967     50.40    0.0    0.0
  5004                    31.00         757      0.00      8.31     21.00     1.576     48.19    0.0    0.2
  5006                    30.07         872      0.00     11.45     21.00     2.140     57.49    0.0    0.0
  5008                    31.00         757      0.00      8.31     21.00     1.576     48.19    0.0    0.2
  5010                    30.07         872      0.00     11.45     21.00     2.140     57.49    0.0    0.0
  

  Analysis begun on:  Wed Jan 02 04:51:24 2019
  Analysis ended on:  Wed Jan 02 04:51:26 2019
  Total elapsed time: 00:00:02