
  EPA STORM WATER MANAGEMENT MODEL - VERSION 5.1 (Build 5.1.012)
  --------------------------------------------------------------

  Scenario Run :  10YRDESIGN 
  
  WARNING 04: minimum elevation drop used for Conduit 54-000-04.1
  WARNING 04: minimum elevation drop used for Conduit 54-000-13.1
  WARNING 04: minimum elevation drop used for Conduit 54-370-04.1
  WARNING 04: minimum elevation drop used for Conduit 58-001-04.1
  WARNING 04: minimum elevation drop used for Conduit 61-010-01.1
  WARNING 04: minimum elevation drop used for Conduit 62-000-01.1
  WARNING 04: minimum elevation drop used for Conduit A42A42BREAK11
  WARNING 04: minimum elevation drop used for Conduit A43A43X1
  WARNING 04: minimum elevation drop used for Conduit A54A551
  WARNING 04: minimum elevation drop used for Conduit AF06N011
  WARNING 04: minimum elevation drop used for Conduit M11M121
  WARNING 04: minimum elevation drop used for Conduit N04N051
  WARNING 04: minimum elevation drop used for Conduit N10N111
  WARNING 04: minimum elevation drop used for Conduit N13N13A1
  WARNING 04: minimum elevation drop used for Conduit NF01N01A1
  WARNING 04: minimum elevation drop used for Conduit PSB-INPSB1
  WARNING 04: minimum elevation drop used for Conduit PSB-INPSB2
  WARNING 04: minimum elevation drop used for Conduit Q35Q361
  WARNING 04: minimum elevation drop used for Conduit S22S231
  WARNING 04: minimum elevation drop used for Conduit S22S232
  WARNING 04: minimum elevation drop used for Conduit S39S401
  WARNING 04: minimum elevation drop used for Conduit S45TAPS46A1
  WARNING 04: minimum elevation drop used for Conduit S59S601
  WARNING 04: minimum elevation drop used for Conduit S65S661
  WARNING 04: minimum elevation drop used for Conduit SD70AIPS0
  WARNING 04: minimum elevation drop used for Conduit SIPHON30B
  WARNING 04: minimum elevation drop used for Conduit SIPHON48B
  WARNING 02: maximum depth increased for Node EPS
  WARNING 02: maximum depth increased for Node Q21B
  WARNING 02: maximum depth increased for Node SAC-DIV
  WARNING 02: maximum depth increased for Node SAC-IN
  
  *********************************************************
  NOTE: The summary statistics displayed in this report are
  based on results found at every computational time step,  
  not just on results from each reporting time step.
  *********************************************************
  
  ****************
  Analysis Options
  ****************
  Flow Units ............... MGD
  Process Models:
    Rainfall/Runoff ........ NO
    RDII ................... NO
    Snowmelt ............... NO
    Groundwater ............ NO
    Flow Routing ........... YES
    Ponding Allowed ........ NO
    Water Quality .......... NO
  Flow Routing Method ...... DYNWAVE
  Starting Date ............ 12/31/1944 18:00:00
  Ending Date .............. 01/07/1945 00:00:00
  Antecedent Dry Days ...... 0.0
  Report Time Step ......... 00:05:00
  Routing Time Step ........ 5.00 sec
  Variable Time Step ....... YES
  Maximum Trials ........... 8
  Number of Threads ........ 1
  Head Tolerance ........... 0.000010 ft
  
  
  *********************
  Control Actions Taken
  *********************
   12/31/1944: 18:00:00 Link OAK-GATE setting changed to   0.01 by Control INNOVYZE-INIT-STATUS-0

  
  **************************        Volume        Volume
  Flow Routing Continuity        acre-feet      10^6 gal
  **************************     ---------     ---------
  Dry Weather Inflow .......         0.000         0.000
  Wet Weather Inflow .......         0.000         0.000
  Groundwater Inflow .......         0.000         0.000
  RDII Inflow ..............         0.000         0.000
  External Inflow ..........         0.000         0.000
  External Outflow .........         0.000         0.000
  Flooding Loss ............         0.000         0.000
  Evaporation Loss .........         0.000         0.000
  Exfiltration Loss ........         0.000         0.000
  Initial Stored Volume ....         0.070         0.023
  Final Stored Volume ......         0.070         0.023
  Continuity Error (%) .....         0.000
  
  
  ***************************
  Time-Step Critical Elements
  ***************************
  None
  
  
  ********************************
  Highest Flow Instability Indexes
  ********************************
  All links are stable.
  
  
  *************************
  Routing Time Step Summary
  *************************
  Minimum Time Step           :     4.50 sec
  Average Time Step           :     5.00 sec
  Maximum Time Step           :     5.00 sec
  Percent in Steady State     :     0.00
  Average Iterations per Step :     2.00
  Percent Not Converging      :     0.00
  
  
  ******************
  Node Depth Summary
  ******************
  
  ---------------------------------------------------------------------------------
                                 Average  Maximum  Maximum  Time of Max    Reported
                                   Depth    Depth      HGL   Occurrence   Max Depth
  Node                 Type         Feet     Feet     Feet  days hr:min        Feet
  ---------------------------------------------------------------------------------
  1017                 JUNCTION     0.00     0.00    97.21     0  00:00        0.00
  1018                 JUNCTION     0.00     0.00    98.55     0  00:00        0.00
  1019                 JUNCTION     0.00     0.00    98.64     0  00:00        0.00
  1020                 JUNCTION     0.00     0.00   100.13     0  00:00        0.00
  1022                 JUNCTION     0.00     0.00   100.17     0  00:00        0.00
  1023                 JUNCTION     0.00     0.00   101.11     0  00:00        0.00
  1025                 JUNCTION     0.00     0.00   101.89     0  00:00        0.00
  1028                 JUNCTION     0.00     0.00   106.49     0  00:00        0.00
  1029                 JUNCTION     0.00     0.00   107.74     0  00:00        0.00
  1030                 JUNCTION     0.00     0.00   110.55     0  00:00        0.00
  1032                 JUNCTION     0.00     0.00   110.77     0  00:00        0.00
  1033                 JUNCTION     0.00     0.00   111.64     0  00:00        0.00
  1034                 JUNCTION     0.00     0.00   116.17     0  00:00        0.00
  1036                 JUNCTION     0.00     0.00   112.88     0  00:00        0.00
  11-000-01            JUNCTION     0.00     0.00   101.27     0  00:00        0.00
  11-000-02            JUNCTION     0.00     0.00   103.70     0  00:00        0.00
  11-000-03            JUNCTION     0.00     0.00   104.20     0  00:00        0.00
  11-000-04            JUNCTION     0.00     0.00   104.90     0  00:00        0.00
  11-000-05            JUNCTION     0.00     0.00   104.79     0  00:00        0.00
  11-000-06            JUNCTION     0.00     0.00   104.88     0  00:00        0.00
  11-000-07            JUNCTION     0.00     0.00   105.31     0  00:00        0.00
  11-000-08            JUNCTION     0.00     0.00   105.06     0  00:00        0.00
  11-000-09            JUNCTION     0.00     0.00   105.33     0  00:00        0.00
  11-000-10            JUNCTION     0.00     0.00   105.70     0  00:00        0.00
  11-000-11            JUNCTION     0.00     0.00   110.08     0  00:00        0.00
  11-000-12            JUNCTION     0.00     0.00   111.79     0  00:00        0.00
  11-000-33            JUNCTION     0.00     0.00   104.44     0  00:00        0.00
  11-000-35            JUNCTION     0.00     0.00   104.88     0  00:00        0.00
  11-000-58            JUNCTION     0.00     0.00   112.00     0  00:00        0.00
  11-100-01            JUNCTION     0.00     0.00   101.94     0  00:00        0.00
  11-100-02            JUNCTION     0.00     0.00   105.00     0  00:00        0.00
  11-100-03            JUNCTION     0.00     0.00   105.80     0  00:00        0.00
  11-100-05            JUNCTION     0.00     0.00   108.80     0  00:00        0.00
  11-100-07            JUNCTION     0.00     0.00   108.78     0  00:00        0.00
  11-100-08            JUNCTION     0.00     0.00   109.95     0  00:00        0.00
  11-100-09            JUNCTION     0.00     0.00   110.65     0  00:00        0.00
  11-100-11            JUNCTION     0.00     0.00   113.00     0  00:00        0.00
  1381                 JUNCTION     0.00     0.00   112.17     0  00:00        0.00
  1383                 JUNCTION     0.00     0.00   109.17     0  00:00        0.00
  1384                 JUNCTION     0.00     0.00   105.89     0  00:00        0.00
  1385                 JUNCTION     0.00     0.00   104.57     0  00:00        0.00
  1387                 JUNCTION     0.00     0.00   104.57     0  00:00        0.00
  1421                 JUNCTION     0.00     0.00   112.87     0  00:00        0.00
  1423                 JUNCTION     0.00     0.00   110.37     0  00:00        0.00
  1427                 JUNCTION     0.00     0.00   108.27     0  00:00        0.00
  1428                 JUNCTION     0.00     0.00   101.17     0  00:00        0.00
  1441                 JUNCTION     0.00     0.00    99.17     0  00:00        0.00
  1442                 JUNCTION     0.00     0.00   102.88     0  00:00        0.00
  1504                 JUNCTION     0.00     0.00   115.52     0  00:00        0.00
  1506                 JUNCTION     0.00     0.00   116.86     0  00:00        0.00
  1507                 JUNCTION     0.00     0.00   111.86     0  00:00        0.00
  1509                 JUNCTION     0.00     0.00   109.22     0  00:00        0.00
  1512                 JUNCTION     0.00     0.00   105.96     0  00:00        0.00
  1515                 JUNCTION     0.00     0.00   103.24     0  00:00        0.00
  1516                 JUNCTION     0.00     0.00   102.71     0  00:00        0.00
  1517                 JUNCTION     0.00     0.00   100.73     0  00:00        0.00
  200000               JUNCTION     0.00     0.00    95.63     0  00:00        0.00
  200001               JUNCTION     0.00     0.00    96.04     0  00:00        0.00
  200100               JUNCTION     0.00     0.00    96.54     0  00:00        0.00
  200101               JUNCTION     0.00     0.00    97.00     0  00:00        0.00
  200102               JUNCTION     0.00     0.00    97.24     0  00:00        0.00
  200103               JUNCTION     0.00     0.00    97.72     0  00:00        0.00
  200104               JUNCTION     0.00     0.00    98.19     0  00:00        0.00
  200105               JUNCTION     0.00     0.00    98.81     0  00:00        0.00
  200106               JUNCTION     0.00     0.00    98.85     0  00:00        0.00
  200107               JUNCTION     0.00     0.00    99.59     0  00:00        0.00
  200108               JUNCTION     0.00     0.00   101.30     0  00:00        0.00
  200109               JUNCTION     0.00     0.00   101.35     0  00:00        0.00
  200110               JUNCTION     0.00     0.00   101.45     0  00:00        0.00
  200111               JUNCTION     0.00     0.00   101.70     0  00:00        0.00
  200112               JUNCTION     0.00     0.00   101.80     0  00:00        0.00
  200113               JUNCTION     0.00     0.00   101.85     0  00:00        0.00
  200114               JUNCTION     0.00     0.00   102.00     0  00:00        0.00
  200116               JUNCTION     0.00     0.00   104.91     0  00:00        0.00
  2871                 JUNCTION     0.00     0.00   104.97     0  00:00        0.00
  2875                 JUNCTION     0.00     0.00    98.91     0  00:00        0.00
  2878                 JUNCTION     0.00     0.00   104.86     0  00:00        0.00
  2879                 JUNCTION     0.00     0.00   105.17     0  00:00        0.00
  2880                 JUNCTION     0.00     0.00   106.52     0  00:00        0.00
  2881                 JUNCTION     0.00     0.00   106.73     0  00:00        0.00
  2902                 JUNCTION     0.00     0.00   101.76     0  00:00        0.00
  2921                 JUNCTION     0.00     0.00   108.25     0  00:00        0.00
  3111                 JUNCTION     0.00     0.00   102.05     0  00:00        0.00
  3112                 JUNCTION     0.00     0.00    99.50     0  00:00        0.00
  3117                 JUNCTION     0.00     0.00   102.07     0  00:00        0.00
  3118                 JUNCTION     0.00     0.00    96.51     0  00:00        0.00
  3119                 JUNCTION     0.00     0.00    96.06     0  00:00        0.00
  4930                 JUNCTION     0.00     0.00    98.70     0  00:00        0.00
  4935                 JUNCTION     0.00     0.00    99.00     0  00:00        0.00
  4936                 JUNCTION     0.00     0.00    99.31     0  00:00        0.00
  4939                 JUNCTION     0.00     0.00   100.66     0  00:00        0.00
  54-000-01            JUNCTION     0.00     0.00    97.27     0  00:00        0.00
  54-000-03            JUNCTION     0.00     0.00    97.11     0  00:00        0.00
  54-000-04            JUNCTION     0.00     0.00    97.11     0  00:00        0.00
  54-000-05            JUNCTION     0.00     0.00    97.25     0  00:00        0.00
  54-000-06            JUNCTION     0.00     0.00    97.42     0  00:00        0.00
  54-000-07            JUNCTION     0.00     0.00    97.66     0  00:00        0.00
  54-000-08            JUNCTION     0.00     0.00    97.67     0  00:00        0.00
  54-000-09            JUNCTION     0.00     0.00    97.71     0  00:00        0.00
  54-000-10            JUNCTION     0.00     0.00    97.90     0  00:00        0.00
  54-000-11            JUNCTION     0.00     0.00    97.96     0  00:00        0.00
  54-000-13            JUNCTION     0.00     0.00    98.39     0  00:00        0.00
  54-000-14            JUNCTION     0.00     0.00    98.53     0  00:00        0.00
  54-000-15            JUNCTION     0.00     0.00    98.97     0  00:00        0.00
  54-000-16            JUNCTION     0.00     0.00    99.23     0  00:00        0.00
  54-000-17            JUNCTION     0.00     0.00    99.25     0  00:00        0.00
  54-000-18            JUNCTION     0.00     0.00    99.40     0  00:00        0.00
  54-000-19            JUNCTION     0.00     0.00    99.48     0  00:00        0.00
  54-000-20            JUNCTION     0.00     0.00    99.61     0  00:00        0.00
  54-000-22            JUNCTION     0.00     0.00   100.13     0  00:00        0.00
  54-000-22WEIR        JUNCTION     0.00     0.00   100.13     0  00:00        0.00
  54-000-23            JUNCTION     0.00     0.00    99.82     0  00:00        0.00
  54-000-23A           JUNCTION     0.00     0.00    99.63     0  00:00        0.00
  54-000-23B           JUNCTION     0.00     0.00    99.62     0  00:00        0.00
  54-000-24            JUNCTION     0.00     0.00   100.04     0  00:00        0.00
  54-000-25            JUNCTION     0.00     0.00   100.05     0  00:00        0.00
  54-000-26            JUNCTION     0.00     0.00   100.25     0  00:00        0.00
  54-000-27            JUNCTION     0.00     0.00   100.30     0  00:00        0.00
  54-000-28            JUNCTION     0.00     0.00   101.26     0  00:00        0.00
  54-000-29            JUNCTION     0.00     0.00   101.52     0  00:00        0.00
  54-000-30            JUNCTION     0.00     0.00   101.50     0  00:00        0.00
  54-000-31            JUNCTION     0.00     0.00   101.46     0  00:00        0.00
  54-000-32            JUNCTION     0.00     0.00   102.04     0  00:00        0.00
  54-000-33            JUNCTION     0.00     0.00   102.35     0  00:00        0.00
  54-000-34            JUNCTION     0.00     0.00   102.60     0  00:00        0.00
  54-000-35            JUNCTION     0.00     0.00   102.69     0  00:00        0.00
  54-000-36            JUNCTION     0.00     0.00   102.90     0  00:00        0.00
  54-000-38            JUNCTION     0.00     0.00   103.40     0  00:00        0.00
  54-000-39            JUNCTION     0.00     0.00   104.00     0  00:00        0.00
  54-000-40            JUNCTION     0.00     0.00   103.90     0  00:00        0.00
  54-000-42            JUNCTION     0.00     0.00    98.39     0  00:00        0.00
  54-001-07            JUNCTION     0.00     0.00    97.13     0  00:00        0.00
  54-001-11            JUNCTION     0.00     0.00    97.00     0  00:00        0.00
  54-001-12            JUNCTION     0.00     0.00    94.80     0  00:00        0.00
  54-001-17            JUNCTION     0.00     0.00   100.63     0  00:00        0.00
  54-001-18            JUNCTION     0.00     0.00   100.70     0  00:00        0.00
  54-001-19            JUNCTION     0.00     0.00   101.14     0  00:00        0.00
  54-001-20            JUNCTION     0.00     0.00   102.27     0  00:00        0.00
  54-001-21            JUNCTION     0.00     0.00   102.50     0  00:00        0.00
  54-001-23            JUNCTION     0.00     0.00   102.48     0  00:00        0.00
  54-001-24            JUNCTION     0.00     0.00   102.42     0  00:00        0.00
  54-001-25            JUNCTION     0.00     0.00   104.50     0  00:00        0.00
  54-001-26            JUNCTION     0.00     0.00    96.70     0  00:00        0.00
  54-001-27            JUNCTION     0.00     0.00    96.91     0  00:00        0.00
  54-002-07            JUNCTION     0.00     0.00   117.83     0  00:00        0.00
  54-002-24            JUNCTION     0.00     0.00   111.10     0  00:00        0.00
  54-002-41            JUNCTION     0.00     0.00   106.66     0  00:00        0.00
  54-002-47            JUNCTION     0.00     0.00   113.13     0  00:00        0.00
  54-002-49            JUNCTION     0.00     0.00    98.98     0  00:00        0.00
  54-003-15            JUNCTION     0.00     0.00   104.27     0  00:00        0.00
  54-003-16            JUNCTION     0.00     0.00   105.10     0  00:00        0.00
  54-003-25            JUNCTION     0.00     0.00   108.13     0  00:00        0.00
  54-010-01            JUNCTION     0.00     0.00    98.99     0  00:00        0.00
  54-010-02            JUNCTION     0.00     0.00    99.20     0  00:00        0.00
  54-010-03            JUNCTION     0.00     0.00    99.40     0  00:00        0.00
  54-010-04            JUNCTION     0.00     0.00    99.57     0  00:00        0.00
  54-010-05            JUNCTION     0.00     0.00   100.06     0  00:00        0.00
  54-010-06            JUNCTION     0.00     0.00   100.15     0  00:00        0.00
  54-010-07            JUNCTION     0.00     0.00   100.18     0  00:00        0.00
  54-010-08            JUNCTION     0.00     0.00    99.25     0  00:00        0.00
  54-020-01            JUNCTION     0.00     0.00   101.12     0  00:00        0.00
  54-020-02            JUNCTION     0.00     0.00   101.31     0  00:00        0.00
  54-020-03            JUNCTION     0.00     0.00   101.61     0  00:00        0.00
  54-020-04            JUNCTION     0.00     0.00   101.90     0  00:00        0.00
  54-100-01            JUNCTION     0.00     0.00   101.64     0  00:00        0.00
  54-100-02            JUNCTION     0.00     0.00   102.74     0  00:00        0.00
  54-100-03            JUNCTION     0.00     0.00   103.15     0  00:00        0.00
  54-100-04            JUNCTION     0.00     0.00   103.57     0  00:00        0.00
  54-100-05            JUNCTION     0.00     0.00   103.98     0  00:00        0.00
  54-100-06            JUNCTION     0.00     0.00   104.40     0  00:00        0.00
  54-100-07            JUNCTION     0.00     0.00   107.27     0  00:00        0.00
  54-100-08            JUNCTION     0.00     0.00   111.00     0  00:00        0.00
  54-101-05            JUNCTION     0.00     0.00   111.16     0  00:00        0.00
  54-103-01            JUNCTION     0.00     0.00   104.83     0  00:00        0.00
  54-103-02            JUNCTION     0.00     0.00   105.30     0  00:00        0.00
  54-103-03            JUNCTION     0.00     0.00   105.68     0  00:00        0.00
  54-103-08            JUNCTION     0.00     0.00   108.98     0  00:00        0.00
  54-200-01            JUNCTION     0.00     0.00   100.49     0  00:00        0.00
  54-200-02            JUNCTION     0.00     0.00   102.00     0  00:00        0.00
  54-200-03            JUNCTION     0.00     0.00   102.25     0  00:00        0.00
  54-200-04            JUNCTION     0.00     0.00   102.31     0  00:00        0.00
  54-200-05            JUNCTION     0.00     0.00   102.84     0  00:00        0.00
  54-200-06            JUNCTION     0.00     0.00   103.35     0  00:00        0.00
  54-200-07            JUNCTION     0.00     0.00   105.42     0  00:00        0.00
  54-200-08            JUNCTION     0.00     0.00   106.83     0  00:00        0.00
  54-200-09            JUNCTION     0.00     0.00   107.73     0  00:00        0.00
  54-200-10            JUNCTION     0.00     0.00   108.91     0  00:00        0.00
  54-201-28            JUNCTION     0.00     0.00   103.30     0  00:00        0.00
  54-201-29            JUNCTION     0.00     0.00   103.06     0  00:00        0.00
  54-201-34            JUNCTION     0.00     0.00   102.45     0  00:00        0.00
  54-370-01            JUNCTION     0.00     0.00    97.79     0  00:00        0.00
  54-370-02            JUNCTION     0.00     0.00    98.41     0  00:00        0.00
  54-370-03            JUNCTION     0.00     0.00    98.70     0  00:00        0.00
  54-370-04            JUNCTION     0.00     0.00    98.70     0  00:00        0.00
  54-370-05            JUNCTION     0.00     0.00    99.90     0  00:00        0.00
  54-370-06            JUNCTION     0.00     0.00    99.37     0  00:00        0.00
  54-370-07            JUNCTION     0.00     0.00    99.27     0  00:00        0.00
  54-370-08            JUNCTION     0.00     0.00    99.50     0  00:00        0.00
  54-370-09            JUNCTION     0.00     0.00    99.66     0  00:00        0.00
  54-370-10            JUNCTION     0.00     0.00    99.83     0  00:00        0.00
  54-370-11            JUNCTION     0.00     0.00   100.36     0  00:00        0.00
  54-370-12            JUNCTION     0.00     0.00   100.90     0  00:00        0.00
  54-370-13            JUNCTION     0.00     0.00   101.03     0  00:00        0.00
  54-370-14            JUNCTION     0.00     0.00   101.20     0  00:00        0.00
  54-370-16            JUNCTION     0.00     0.00    96.21     0  00:00        0.00
  54-370-17            JUNCTION     0.00     0.00    96.85     0  00:00        0.00
  54-370-18            JUNCTION     0.00     0.00    96.75     0  00:00        0.00
  54-370-19            JUNCTION     0.00     0.00    97.02     0  00:00        0.00
  54-370-20            JUNCTION     0.00     0.00    97.26     0  00:00        0.00
  54-370-21            JUNCTION     0.00     0.00    97.28     0  00:00        0.00
  54-370-23            JUNCTION     0.00     0.00    96.90     0  00:00        0.00
  54-370-24            JUNCTION     0.00     0.00    94.24     0  00:00        0.00
  54-370-25            JUNCTION     0.00     0.00    94.45     0  00:00        0.00
  54-370-26            JUNCTION     0.00     0.00    94.50     0  00:00        0.00
  54-370-27            JUNCTION     0.00     0.00    94.59     0  00:00        0.00
  54-370-28            JUNCTION     0.00     0.00    94.69     0  00:00        0.00
  54-370-29            JUNCTION     0.00     0.00    96.00     0  00:00        0.00
  54-370-30            JUNCTION     0.00     0.00    96.15     0  00:00        0.00
  54-370-31            JUNCTION     0.00     0.00    96.24     0  00:00        0.00
  54-370-33            JUNCTION     0.00     0.00    92.81     0  00:00        0.00
  54-370-34            JUNCTION     0.00     0.00    93.96     0  00:00        0.00
  58-000-01            JUNCTION     0.00     0.00   100.79     0  00:00        0.00
  58-000-02            JUNCTION     0.00     0.00   101.46     0  00:00        0.00
  58-000-03            JUNCTION     0.00     0.00   103.03     0  00:00        0.00
  58-000-04            JUNCTION     0.00     0.00   103.24     0  00:00        0.00
  58-000-05            JUNCTION     0.00     0.00   103.69     0  00:00        0.00
  58-000-06            JUNCTION     0.00     0.00   103.72     0  00:00        0.00
  58-000-07            JUNCTION     0.00     0.00   103.90     0  00:00        0.00
  58-000-08            JUNCTION     0.00     0.00   106.90     0  00:00        0.00
  58-000-09            JUNCTION     0.00     0.00   107.04     0  00:00        0.00
  58-000-10            JUNCTION     0.00     0.00   107.56     0  00:00        0.00
  58-000-11            JUNCTION     0.00     0.00   109.80     0  00:00        0.00
  58-001-03            JUNCTION     0.00     0.00   102.27     0  00:00        0.00
  58-001-04            JUNCTION     0.00     0.00   102.27     0  00:00        0.00
  58-001-05            JUNCTION     0.00     0.00   102.74     0  00:00        0.00
  58-001-06            JUNCTION     0.00     0.00   104.10     0  00:00        0.00
  58-001-07            JUNCTION     0.00     0.00   110.04     0  00:00        0.00
  58-001-26            JUNCTION     0.00     0.00   102.60     0  00:00        0.00
  58-001-27            JUNCTION     0.00     0.00   102.57     0  00:00        0.00
  58-002-01            JUNCTION     0.00     0.00   100.84     0  00:00        0.00
  58-002-16            JUNCTION     0.00     0.00   107.00     0  00:00        0.00
  58-002-24            JUNCTION     0.00     0.00   109.41     0  00:00        0.00
  59-000-03            JUNCTION     0.00     0.00    99.80     0  00:00        0.00
  59-000-04            JUNCTION     0.00     0.00   100.12     0  00:00        0.00
  59-000-05            JUNCTION     0.00     0.00   100.25     0  00:00        0.00
  59-000-06            JUNCTION     0.00     0.00   100.47     0  00:00        0.00
  59-000-07            JUNCTION     0.00     0.00   101.24     0  00:00        0.00
  59-000-08            JUNCTION     0.00     0.00   101.57     0  00:00        0.00
  59-000-09            JUNCTION     0.00     0.00   112.71     0  00:00        0.00
  59-000-10            JUNCTION     0.00     0.00   113.77     0  00:00        0.00
  59-001-03            JUNCTION     0.00     0.00   113.00     0  00:00        0.00
  59-100-01            JUNCTION     0.00     0.00   101.67     0  00:00        0.00
  59-100-02            JUNCTION     0.00     0.00   103.82     0  00:00        0.00
  59-100-03            JUNCTION     0.00     0.00   105.14     0  00:00        0.00
  59-100-04            JUNCTION     0.00     0.00   107.00     0  00:00        0.00
  59-100-05            JUNCTION     0.00     0.00   109.20     0  00:00        0.00
  59-101-01            JUNCTION     0.00     0.00   105.75     0  00:00        0.00
  59-101-02            JUNCTION     0.00     0.00   109.00     0  00:00        0.00
  59-200-01            JUNCTION     0.00     0.00   103.01     0  00:00        0.00
  59-200-03            JUNCTION     0.00     0.00   106.40     0  00:00        0.00
  59-200-04            JUNCTION     0.00     0.00   108.40     0  00:00        0.00
  59-201-01            JUNCTION     0.00     0.00   103.95     0  00:00        0.00
  60-000-01            JUNCTION     0.00     0.00   101.51     0  00:00        0.00
  60-000-02            JUNCTION     0.00     0.00   101.63     0  00:00        0.00
  60-000-03            JUNCTION     0.00     0.00   103.25     0  00:00        0.00
  60-000-04            JUNCTION     0.00     0.00   105.55     0  00:00        0.00
  60-000-05            JUNCTION     0.00     0.00   106.87     0  00:00        0.00
  60-000-06            JUNCTION     0.00     0.00   107.37     0  00:00        0.00
  60-000-07            JUNCTION     0.00     0.00   115.28     0  00:00        0.00
  60-001-01            JUNCTION     0.00     0.00   100.43     0  00:00        0.00
  60-001-03            JUNCTION     0.00     0.00   101.12     0  00:00        0.00
  60-002-01            JUNCTION     0.00     0.00   103.08     0  00:00        0.00
  60-002-02            JUNCTION     0.00     0.00   104.19     0  00:00        0.00
  60-002-03            JUNCTION     0.00     0.00   105.00     0  00:00        0.00
  60-002-14            JUNCTION     0.00     0.00   109.50     0  00:00        0.00
  60-002-17            JUNCTION     0.00     0.00   116.02     0  00:00        0.00
  60-002-24            JUNCTION     0.00     0.00   104.50     0  00:00        0.00
  60-002-25            JUNCTION     0.00     0.00   109.80     0  00:00        0.00
  60-002-28            JUNCTION     0.00     0.00   117.00     0  00:00        0.00
  60-002-42            JUNCTION     0.00     0.00   105.79     0  00:00        0.00
  60-002-43            JUNCTION     0.00     0.00   122.23     0  00:00        0.00
  60-002-56            JUNCTION     0.00     0.00   104.42     0  00:00        0.00
  60-002-57            JUNCTION     0.00     0.00   106.35     0  00:00        0.00
  60-002-58            JUNCTION     0.00     0.00   106.52     0  00:00        0.00
  60-002-59            JUNCTION     0.00     0.00   107.30     0  00:00        0.00
  60-002-60            JUNCTION     0.00     0.00   112.00     0  00:00        0.00
  60-002-83            JUNCTION     0.00     0.00   109.42     0  00:00        0.00
  60-002-84            JUNCTION     0.00     0.00   109.48     0  00:00        0.00
  60-002-85            JUNCTION     0.00     0.00   122.45     0  00:00        0.00
  60-003-01            JUNCTION     0.00     0.00   111.73     0  00:00        0.00
  60-003-02            JUNCTION     0.00     0.00   115.80     0  00:00        0.00
  60-005-12            JUNCTION     0.00     0.00   113.75     0  00:00        0.00
  60-010-01            JUNCTION     0.00     0.00   100.71     0  00:00        0.00
  60-010-02            JUNCTION     0.00     0.00   100.15     0  00:00        0.00
  60-010-03            JUNCTION     0.00     0.00   100.38     0  00:00        0.00
  60-010-04            JUNCTION     0.00     0.00   100.79     0  00:00        0.00
  60-010-05            JUNCTION     0.00     0.00   100.84     0  00:00        0.00
  60-010-06            JUNCTION     0.00     0.00   101.11     0  00:00        0.00
  60-010-07            JUNCTION     0.00     0.00   101.39     0  00:00        0.00
  60-010-08            JUNCTION     0.00     0.00   101.90     0  00:00        0.00
  60-010-09            JUNCTION     0.00     0.00   102.57     0  00:00        0.00
  60-010-10            JUNCTION     0.00     0.00   103.86     0  00:00        0.00
  60-010-11            JUNCTION     0.00     0.00   104.10     0  00:00        0.00
  60-010-12            JUNCTION     0.00     0.00   104.62     0  00:00        0.00
  60-010-13            JUNCTION     0.00     0.00   105.39     0  00:00        0.00
  60-010-14            JUNCTION     0.00     0.00   106.01     0  00:00        0.00
  61-000-02            JUNCTION     0.00     0.00   104.20     0  00:00        0.00
  61-010-01            JUNCTION     0.00     0.00   101.91     0  00:00        0.00
  61-010-02            JUNCTION     0.00     0.00   106.76     0  00:00        0.00
  61-010-03            JUNCTION     0.00     0.00   108.05     0  00:00        0.00
  61-010-04            JUNCTION     0.00     0.00   110.61     0  00:00        0.00
  62-000-01            JUNCTION     0.00     0.00   109.76     0  00:00        0.00
  62-000-02            JUNCTION     0.00     0.00   113.71     0  00:00        0.00
  62-000-03            JUNCTION     0.00     0.00   117.00     0  00:00        0.00
  62-010-01            JUNCTION     0.00     0.00   104.60     0  00:00        0.00
  62-010-02            JUNCTION     0.00     0.00   105.66     0  00:00        0.00
  62-010-03            JUNCTION     0.00     0.00   106.96     0  00:00        0.00
  62-010-04            JUNCTION     0.00     0.00   108.91     0  00:00        0.00
  62-010-04A           JUNCTION     0.00     0.00   110.02     0  00:00        0.00
  62-011-32            JUNCTION     0.00     0.00   110.75     0  00:00        0.00
  62-011-35            JUNCTION     0.00     0.00   111.85     0  00:00        0.00
  62-011-36            JUNCTION     0.00     0.00   112.95     0  00:00        0.00
  62-011-38            JUNCTION     0.00     0.00   113.74     0  00:00        0.00
  62-030-01            JUNCTION     0.00     0.00   116.00     0  00:00        0.00
  62-030-02            JUNCTION     0.00     0.00   116.60     0  00:00        0.00
  62-030-03            JUNCTION     0.00     0.00   116.76     0  00:00        0.00
  62-030-04            JUNCTION     0.00     0.00   117.40     0  00:00        0.00
  62-030-05            JUNCTION     0.00     0.00   118.10     0  00:00        0.00
  62-030-06            JUNCTION     0.00     0.00   118.80     0  00:00        0.00
  64-200-01            JUNCTION     0.00     0.00    95.39     0  00:00        0.00
  64-200-02            JUNCTION     0.00     0.00   100.08     0  00:00        0.00
  64-200-03            JUNCTION     0.00     0.00   102.52     0  00:00        0.00
  64-200-04            JUNCTION     0.00     0.00   103.67     0  00:00        0.00
  64-200-05            JUNCTION     0.00     0.00   105.30     0  00:00        0.00
  64-200-06            JUNCTION     0.00     0.00   105.77     0  00:00        0.00
  64-200-07            JUNCTION     0.00     0.00   106.04     0  00:00        0.00
  64-200-08            JUNCTION     0.00     0.00   106.15     0  00:00        0.00
  64-200-09            JUNCTION     0.00     0.00   107.12     0  00:00        0.00
  64-200-10            JUNCTION     0.00     0.00   110.30     0  00:00        0.00
  64-201-33            JUNCTION     0.00     0.00   112.36     0  00:00        0.00
  64-201-58            JUNCTION     0.00     0.00    95.26     0  00:00        0.00
  64-201-59            JUNCTION     0.00     0.00    96.70     0  00:00        0.00
  64-201-60            JUNCTION     0.00     0.00    97.10     0  00:00        0.00
  64-201-61            JUNCTION     0.00     0.00    98.20     0  00:00        0.00
  64-201-62            JUNCTION     0.00     0.00    99.10     0  00:00        0.00
  64-201-63            JUNCTION     0.00     0.00    99.50     0  00:00        0.00
  64-201-64            JUNCTION     0.00     0.00   101.00     0  00:00        0.00
  64-201-65            JUNCTION     0.00     0.00   102.50     0  00:00        0.00
  64-201-66            JUNCTION     0.00     0.00   103.01     0  00:00        0.00
  64-210-01            JUNCTION     0.00     0.00    97.36     0  00:00        0.00
  64-210-02            JUNCTION     0.00     0.00    99.24     0  00:00        0.00
  64-210-03            JUNCTION     0.00     0.00   102.95     0  00:00        0.00
  64-210-04            JUNCTION     0.00     0.00   104.64     0  00:00        0.00
  64-210-05            JUNCTION     0.00     0.00   108.70     0  00:00        0.00
  64-400-01            JUNCTION     0.00     0.00    96.50     0  00:00        0.00
  64-400-02            JUNCTION     0.00     0.00    96.80     0  00:00        0.00
  64-400-03            JUNCTION     0.00     0.00    99.00     0  00:00        0.00
  64-400-04            JUNCTION     0.00     0.00   102.25     0  00:00        0.00
  64-400-05            JUNCTION     0.00     0.00   104.50     0  00:00        0.00
  64-400-06            JUNCTION     0.00     0.00   105.50     0  00:00        0.00
  64-400-07            JUNCTION     0.00     0.00   106.50     0  00:00        0.00
  64-400-08            JUNCTION     0.00     0.00   110.00     0  00:00        0.00
  64-401-74            JUNCTION     0.00     0.00    94.25     0  00:00        0.00
  64-401-76            JUNCTION     0.00     0.00    98.23     0  00:00        0.00
  64-600-01            JUNCTION     0.00     0.00    94.69     0  00:00        0.00
  64-600-02            JUNCTION     0.00     0.00    95.40     0  00:00        0.00
  64-600-03            JUNCTION     0.00     0.00    97.57     0  00:00        0.00
  64-600-04            JUNCTION     0.00     0.00    98.00     0  00:00        0.00
  64-600-05            JUNCTION     0.00     0.00    99.12     0  00:00        0.00
  64-600-06            JUNCTION     0.00     0.00    99.57     0  00:00        0.00
  64-600-07            JUNCTION     0.00     0.00   100.11     0  00:00        0.00
  64-600-08            JUNCTION     0.00     0.00   101.03     0  00:00        0.00
  64-600-09            JUNCTION     0.00     0.00   102.06     0  00:00        0.00
  64-600-10            JUNCTION     0.00     0.00   103.24     0  00:00        0.00
  64-600-11            JUNCTION     0.00     0.00   103.34     0  00:00        0.00
  64-600-12            JUNCTION     0.00     0.00   104.09     0  00:00        0.00
  64-600-13            JUNCTION     0.00     0.00   104.19     0  00:00        0.00
  64-600-14            JUNCTION     0.00     0.00   104.33     0  00:00        0.00
  64-600-15            JUNCTION     0.00     0.00   105.93     0  00:00        0.00
  64-600-16            JUNCTION     0.00     0.00   107.53     0  00:00        0.00
  64-601-08            JUNCTION     0.00     0.00    98.75     0  00:00        0.00
  64-601-09            JUNCTION     0.00     0.00    99.80     0  00:00        0.00
  64-601-13            JUNCTION     0.00     0.00   102.42     0  00:00        0.00
  64-601-14            JUNCTION     0.00     0.00   104.23     0  00:00        0.00
  64-601-18            JUNCTION     0.00     0.00   104.57     0  00:00        0.00
  64-601-20            JUNCTION     0.00     0.00   106.11     0  00:00        0.00
  64-601-21            JUNCTION     0.00     0.00   107.00     0  00:00        0.00
  64-601-60            JUNCTION     0.00     0.00   105.33     0  00:00        0.00
  64-601-61            JUNCTION     0.00     0.00   107.60     0  00:00        0.00
  64-601-87            JUNCTION     0.00     0.00   101.43     0  00:00        0.00
  64-700-01            JUNCTION     0.00     0.00    97.70     0  00:00        0.00
  64-700-02            JUNCTION     0.00     0.00    99.10     0  00:00        0.00
  64-700-03            JUNCTION     0.00     0.00   100.50     0  00:00        0.00
  64-999-01            JUNCTION     0.00     0.00   100.17     0  00:00        0.00
  64-999-02            JUNCTION     0.00     0.00   101.02     0  00:00        0.00
  64-999-03            JUNCTION     0.00     0.00   101.54     0  00:00        0.00
  671                  JUNCTION     0.00     0.00   106.27     0  00:00        0.00
  6727                 JUNCTION     0.00     0.00   113.16     0  00:00        0.00
  6791                 JUNCTION     0.00     0.00   109.62     0  00:00        0.00
  6792                 JUNCTION     0.00     0.00   110.23     0  00:00        0.00
  6796                 JUNCTION     0.00     0.00   104.41     0  00:00        0.00
  6797                 JUNCTION     0.00     0.00   103.95     0  00:00        0.00
  6798                 JUNCTION     0.00     0.00   103.00     0  00:00        0.00
  6799                 JUNCTION     0.00     0.00   101.27     0  00:00        0.00
  7026                 JUNCTION     0.00     0.00   105.17     0  00:00        0.00
  7068                 JUNCTION     0.00     0.00   109.28     0  00:00        0.00
  7071                 JUNCTION     0.00     0.00    99.76     0  00:00        0.00
  7073                 JUNCTION     0.00     0.00   105.47     0  00:00        0.00
  736                  JUNCTION     0.00     0.00   112.42     0  00:00        0.00
  738                  JUNCTION     0.00     0.00   107.87     0  00:00        0.00
  743                  JUNCTION     0.00     0.00   102.99     0  00:00        0.00
  744                  JUNCTION     0.00     0.00   104.87     0  00:00        0.00
  747                  JUNCTION     0.00     0.00   102.60     0  00:00        0.00
  748                  JUNCTION     0.00     0.00   102.78     0  00:00        0.00
  749                  JUNCTION     0.00     0.00   102.32     0  00:00        0.00
  750                  JUNCTION     0.00     0.00   102.17     0  00:00        0.00
  754                  JUNCTION     0.00     0.00   103.12     0  00:00        0.00
  755                  JUNCTION     0.00     0.00   103.63     0  00:00        0.00
  756                  JUNCTION     0.00     0.00   104.05     0  00:00        0.00
  7584                 JUNCTION     0.00     0.00   117.17     0  00:00        0.00
  7613                 JUNCTION     0.00     0.00   101.38     0  00:00        0.00
  7614                 JUNCTION     0.00     0.00   101.63     0  00:00        0.00
  7615                 JUNCTION     0.00     0.00   101.66     0  00:00        0.00
  7616                 JUNCTION     0.00     0.00   101.93     0  00:00        0.00
  7617                 JUNCTION     0.00     0.00   102.20     0  00:00        0.00
  7618                 JUNCTION     0.00     0.00   102.51     0  00:00        0.00
  7619                 JUNCTION     0.00     0.00   102.67     0  00:00        0.00
  7620                 JUNCTION     0.00     0.00   103.06     0  00:00        0.00
  7621                 JUNCTION     0.00     0.00   105.45     0  00:00        0.00
  7622                 JUNCTION     0.00     0.00   106.49     0  00:00        0.00
  7623                 JUNCTION     0.00     0.00   107.81     0  00:00        0.00
  7624                 JUNCTION     0.00     0.00   108.17     0  00:00        0.00
  7625                 JUNCTION     0.00     0.00   109.14     0  00:00        0.00
  7626                 JUNCTION     0.00     0.00   112.69     0  00:00        0.00
  7846                 JUNCTION     0.00     0.00   102.12     0  00:00        0.00
  7910                 JUNCTION     0.00     0.00   105.32     0  00:00        0.00
  80-000-01            JUNCTION     0.00     0.00   112.85     0  00:00        0.00
  80-000-03            JUNCTION     0.00     0.00   114.12     0  00:00        0.00
  80-000-05            JUNCTION     0.00     0.00   115.27     0  00:00        0.00
  80-000-07            JUNCTION     0.00     0.00   117.24     0  00:00        0.00
  80-000-09            JUNCTION     0.00     0.00   118.49     0  00:00        0.00
  80-000-11            JUNCTION     0.00     0.00   120.38     0  00:00        0.00
  80-000-13            JUNCTION     0.00     0.00   123.00     0  00:00        0.00
  80-000-16            JUNCTION     0.00     0.00   125.80     0  00:00        0.00
  80-021-01            JUNCTION     0.00     0.00   121.88     0  00:00        0.00
  83-000-01            JUNCTION     0.00     0.00    98.70     0  00:00        0.00
  83-000-03            JUNCTION     0.00     0.00    99.10     0  00:00        0.00
  83-000-11            JUNCTION     0.00     0.00   100.00     0  00:00        0.00
  83-000-13            JUNCTION     0.00     0.00   100.12     0  00:00        0.00
  83-000-15            JUNCTION     0.00     0.00   101.30     0  00:00        0.00
  83-000-17            JUNCTION     0.00     0.00   103.00     0  00:00        0.00
  83-000-23            JUNCTION     0.00     0.00   111.28     0  00:00        0.00
  83-000-25            JUNCTION     0.00     0.00   113.10     0  00:00        0.00
  83-000-27            JUNCTION     0.00     0.00   113.60     0  00:00        0.00
  83-000-51            JUNCTION     0.00     0.00   101.61     0  00:00        0.00
  83-000-63            JUNCTION     0.00     0.00   112.60     0  00:00        0.00
  83-000-65            JUNCTION     0.00     0.00   113.70     0  00:00        0.00
  83-001-89            JUNCTION     0.00     0.00    95.25     0  00:00        0.00
  83-001-90            JUNCTION     0.00     0.00    96.80     0  00:00        0.00
  83-001-91            JUNCTION     0.00     0.00    97.30     0  00:00        0.00
  83-100-19            JUNCTION     0.00     0.00   104.60     0  00:00        0.00
  83-100-29            JUNCTION     0.00     0.00   106.34     0  00:00        0.00
  83-100-31            JUNCTION     0.00     0.00   107.96     0  00:00        0.00
  83-100-33            JUNCTION     0.00     0.00   109.10     0  00:00        0.00
  83UFLOWSPLIT1        JUNCTION     0.00     0.00   114.00     0  00:00        0.00
  84-000-01            JUNCTION     0.00     0.00    97.71     0  00:00        0.00
  84-000-03            JUNCTION     0.00     0.00    97.34     0  00:00        0.00
  84-000-05            JUNCTION     0.00     0.00    97.43     0  00:00        0.00
  84-000-07            JUNCTION     0.00     0.00    97.87     0  00:00        0.00
  84-000-13            JUNCTION     0.00     0.00    99.00     0  00:00        0.00
  84-000-17            JUNCTION     0.00     0.00   102.20     0  00:00        0.00
  84-000-19            JUNCTION     0.00     0.00   104.10     0  00:00        0.00
  84-000-21            JUNCTION     0.00     0.00   104.96     0  00:00        0.00
  84-000-23            JUNCTION     0.00     0.00   107.80     0  00:00        0.00
  84-100-15            JUNCTION     0.00     0.00   100.10     0  00:00        0.00
  84-100-17            JUNCTION     0.00     0.00   100.20     0  00:00        0.00
  84-100-19            JUNCTION     0.00     0.00   101.60     0  00:00        0.00
  84-100-25            JUNCTION     0.00     0.00   109.80     0  00:00        0.00
  84-100-27            JUNCTION     0.00     0.00   112.30     0  00:00        0.00
  84-100-29            JUNCTION     0.00     0.00   112.60     0  00:00        0.00
  84-100-31            JUNCTION     0.00     0.00   113.10     0  00:00        0.00
  85-000-01            JUNCTION     0.00     0.00    97.00     0  00:00        0.00
  85-000-02            JUNCTION     0.00     0.00    98.00     0  00:00        0.00
  85-000-03            JUNCTION     0.00     0.00    98.17     0  00:00        0.00
  85-000-05            JUNCTION     0.00     0.00    98.00     0  00:00        0.00
  85-000-07            JUNCTION     0.00     0.00    98.27     0  00:00        0.00
  85-000-31            JUNCTION     0.00     0.00   103.03     0  00:00        0.00
  85-000-37            JUNCTION     0.00     0.00   106.30     0  00:00        0.00
  85-000-47            JUNCTION     0.00     0.00   116.20     0  00:00        0.00
  85-000-49            JUNCTION     0.00     0.00   118.90     0  00:00        0.00
  85-000-51            JUNCTION     0.00     0.00   119.70     0  00:00        0.00
  85-000-53            JUNCTION     0.00     0.00   120.00     0  00:00        0.00
  85-200-31            JUNCTION     0.00     0.00   112.80     0  00:00        0.00
  85-200-33            JUNCTION     0.00     0.00   114.00     0  00:00        0.00
  85-200-33WEIR        JUNCTION     0.00     0.00   113.08     0  00:00        0.00
  85-200-35            JUNCTION     0.00     0.00   114.10     0  00:00        0.00
  9100103              JUNCTION     0.00     0.00   100.94     0  00:00        0.00
  9100105              JUNCTION     0.00     0.00   102.20     0  00:00        0.00
  9100140              JUNCTION     0.00     0.00    95.59     0  00:00        0.00
  9100141              JUNCTION     0.00     0.00    95.69     0  00:00        0.00
  9100142              JUNCTION     0.00     0.00    96.73     0  00:00        0.00
  9100148              JUNCTION     0.00     0.00    97.06     0  00:00        0.00
  9100151              JUNCTION     0.00     0.00    97.00     0  00:00        0.00
  9100153              JUNCTION     0.00     0.00    97.32     0  00:00        0.00
  9100154              JUNCTION     0.00     0.00    99.86     0  00:00        0.00
  9100155              JUNCTION     0.00     0.00    98.31     0  00:00        0.00
  9100161              JUNCTION     0.00     0.00    99.57     0  00:00        0.00
  9100162              JUNCTION     0.00     0.00    99.57     0  00:00        0.00
  9100164              JUNCTION     0.00     0.00   100.11     0  00:00        0.00
  9100221              JUNCTION     0.00     0.00    99.81     0  00:00        0.00
  9100222              JUNCTION     0.00     0.00   100.45     0  00:00        0.00
  9999992              JUNCTION     0.00     0.00    99.20     0  00:00        0.00
  9999993              JUNCTION     0.00     0.00    97.99     0  00:00        0.00
  9999994              JUNCTION     0.00     0.00   100.41     0  00:00        0.00
  9999995              JUNCTION     0.00     0.00   102.21     0  00:00        0.00
  9999996              JUNCTION     0.00     0.00   103.81     0  00:00        0.00
  9999997              JUNCTION     0.00     0.00   106.41     0  00:00        0.00
  A01                  JUNCTION     0.00     0.00    97.65     0  00:00        0.00
  A02                  JUNCTION     0.00     0.00    96.71     0  00:00        0.00
  A03                  JUNCTION     0.00     0.00    95.92     0  00:00        0.00
  A04                  JUNCTION     0.00     0.00    95.25     0  00:00        0.00
  A05                  JUNCTION     0.00     0.00    94.32     0  00:00        0.00
  A06                  JUNCTION     0.00     0.00    93.57     0  00:00        0.00
  A07                  JUNCTION     0.00     0.00   105.26     0  00:00        0.00
  A08                  JUNCTION     0.00     0.00   102.69     0  00:00        0.00
  A09                  JUNCTION     0.00     0.00   101.94     0  00:00        0.00
  A10                  JUNCTION     0.00     0.00   100.31     0  00:00        0.00
  A11                  JUNCTION     0.00     0.00    98.77     0  00:00        0.00
  A12                  JUNCTION     0.00     0.00    97.28     0  00:00        0.00
  A13                  JUNCTION     0.00     0.00    95.92     0  00:00        0.00
  A14                  JUNCTION     0.00     0.00    94.14     0  00:00        0.00
  A15                  JUNCTION     0.00     0.00   104.69     0  00:00        0.00
  A16                  JUNCTION     0.00     0.00   103.89     0  00:00        0.00
  A17                  JUNCTION     0.00     0.00   102.92     0  00:00        0.00
  A18                  JUNCTION     0.00     0.00   102.00     0  00:00        0.00
  A19                  JUNCTION     0.00     0.00   101.00     0  00:00        0.00
  A20                  JUNCTION     0.00     0.00   100.87     0  00:00        0.00
  A21                  JUNCTION     0.00     0.00   100.34     0  00:00        0.00
  A22                  JUNCTION     0.00     0.00   100.02     0  00:00        0.00
  A23                  JUNCTION     0.00     0.00    99.69     0  00:00        0.00
  A24                  JUNCTION     0.00     0.00    99.36     0  00:00        0.00
  A25                  JUNCTION     0.00     0.00    99.02     0  00:00        0.00
  A26                  JUNCTION     0.00     0.00    98.84     0  00:00        0.00
  A27                  JUNCTION     0.00     0.00    98.44     0  00:00        0.00
  A28                  JUNCTION     0.00     0.00    98.04     0  00:00        0.00
  A29                  JUNCTION     0.00     0.00    97.81     0  00:00        0.00
  A30                  JUNCTION     0.00     0.00    97.61     0  00:00        0.00
  A31                  JUNCTION     0.00     0.00    97.26     0  00:00        0.00
  A32                  JUNCTION     0.00     0.00    97.11     0  00:00        0.00
  A33                  JUNCTION     0.00     0.00    96.88     0  00:00        0.00
  A34                  JUNCTION     0.00     0.00    96.76     0  00:00        0.00
  A35                  JUNCTION     0.00     0.00    96.64     0  00:00        0.00
  A36                  JUNCTION     0.00     0.00    96.40     0  00:00        0.00
  A37                  JUNCTION     0.00     0.00    96.10     0  00:00        0.00
  A38                  JUNCTION     0.00     0.00    95.91     0  00:00        0.00
  A39                  JUNCTION     0.00     0.00    95.65     0  00:00        0.00
  A40                  JUNCTION     0.00     0.00    95.42     0  00:00        0.00
  A41                  JUNCTION     0.00     0.00    95.24     0  00:00        0.00
  A42                  JUNCTION     0.00     0.00    94.93     0  00:00        0.00
  A42BREAK1            JUNCTION     0.00     0.00    94.93     0  00:00        0.00
  A42BREAK2            JUNCTION     0.00     0.00    94.92     0  00:00        0.00
  A43                  JUNCTION     0.00     0.00    94.90     0  00:00        0.00
  A43X                 JUNCTION     0.00     0.00    94.90     0  00:00        0.00
  A44                  JUNCTION     0.00     0.00    94.87     0  00:00        0.00
  A45                  JUNCTION     0.00     0.00    94.82     0  00:00        0.00
  A45A                 JUNCTION     0.00     0.00    94.28     0  00:00        0.00
  A46                  JUNCTION     0.00     0.00    93.96     0  00:00        0.00
  A46A                 JUNCTION     0.00     0.00    93.95     0  00:00        0.00
  A47                  JUNCTION     0.00     0.00    93.45     0  00:00        0.00
  A48                  JUNCTION     0.00     0.00    93.03     0  00:00        0.00
  A48A                 JUNCTION     0.00     0.00    92.72     0  00:00        0.00
  A50                  JUNCTION     0.00     0.00    92.31     0  00:00        0.00
  A50A                 JUNCTION     0.00     0.00    92.19     0  00:00        0.00
  A51                  JUNCTION     0.00     0.00    92.50     0  00:00        0.00
  A52A                 JUNCTION     0.00     0.00    92.48     0  00:00        0.00
  A52B                 JUNCTION     0.00     0.00    94.45     0  00:00        0.00
  A53                  JUNCTION     0.00     0.00    96.62     0  00:00        0.00
  A54                  JUNCTION     0.00     0.00    96.41     0  00:00        0.00
  A55                  JUNCTION     0.00     0.00    96.41     0  00:00        0.00
  A56                  JUNCTION     0.00     0.00    95.97     0  00:00        0.00
  A58                  JUNCTION     0.00     0.00    95.47     0  00:00        0.00
  A59                  JUNCTION     0.00     0.00    95.20     0  00:00        0.00
  A59A                 JUNCTION     0.00     0.00    95.00     0  00:00        0.00
  A60                  JUNCTION     0.00     0.00   120.56     0  00:00        0.00
  A61                  JUNCTION     0.00     0.00   119.18     0  00:00        0.00
  A62                  JUNCTION     0.00     0.00   105.41     0  00:00        0.00
  AC20                 JUNCTION     0.00     0.00    96.20     0  00:00        0.00
  AD-1A                JUNCTION     0.00     0.00    89.09     0  00:00        0.00
  AD-1B                JUNCTION     0.00     0.00    87.76     0  00:00        0.00
  AD-1C                JUNCTION     0.00     0.00    87.63     0  00:00        0.00
  AD01                 JUNCTION     0.00     0.00    89.30     0  00:00        0.00
  AD02                 JUNCTION     0.00     0.00    90.08     0  00:00        0.00
  AD03                 JUNCTION     0.00     0.00    92.07     0  00:00        0.00
  AD04                 JUNCTION     0.00     0.00   106.79     0  00:00        0.00
  AD05                 JUNCTION     0.00     0.00   112.52     0  00:00        0.00
  AD06                 JUNCTION     0.00     0.00   119.17     0  00:00        0.00
  AD07                 JUNCTION     0.00     0.00   124.07     0  00:00        0.00
  AD08                 JUNCTION     0.00     0.00   134.47     0  00:00        0.00
  AD09                 JUNCTION     0.00     0.00   139.33     0  00:00        0.00
  AD10                 JUNCTION     0.00     0.00   145.78     0  00:00        0.00
  AD11                 JUNCTION     0.00     0.00   150.29     0  00:00        0.00
  AD12                 JUNCTION     0.00     0.00   151.13     0  00:00        0.00
  AD13                 JUNCTION     0.00     0.00   153.07     0  00:00        0.00
  AD14                 JUNCTION     0.00     0.00   154.96     0  00:00        0.00
  AD15                 JUNCTION     0.00     0.00   155.71     0  00:00        0.00
  AD16                 JUNCTION     0.00     0.00   157.66     0  00:00        0.00
  AD17                 JUNCTION     0.00     0.00   159.41     0  00:00        0.00
  AD18                 JUNCTION     0.00     0.00   169.80     0  00:00        0.00
  AD19                 JUNCTION     0.00     0.00   182.68     0  00:00        0.00
  AD20                 JUNCTION     0.00     0.00   187.45     0  00:00        0.00
  AD21                 JUNCTION     0.00     0.00   191.12     0  00:00        0.00
  ADA                  JUNCTION     0.00     0.00   100.92     0  00:00        0.00
  ADB                  JUNCTION     0.00     0.00   126.91     0  00:00        0.00
  ADC                  JUNCTION     0.00     0.00   196.20     0  00:00        0.00
  AF01                 JUNCTION     0.00     0.00   103.40     0  00:00        0.00
  AF02                 JUNCTION     0.00     0.00   108.00     0  00:00        0.00
  AF03                 JUNCTION     0.00     0.00   104.00     0  00:00        0.00
  AF04                 JUNCTION     0.00     0.00   102.60     0  00:00        0.00
  AF05                 JUNCTION     0.00     0.00   101.50     0  00:00        0.00
  AF06                 JUNCTION     0.00     0.00    98.37     0  00:00        0.00
  AI01                 JUNCTION     0.00     0.00   101.40     0  00:00        0.00
  AI03                 JUNCTION     0.00     0.00   101.06     0  00:00        0.00
  AI04                 JUNCTION     0.00     0.00    99.50     0  00:00        0.00
  C01                  JUNCTION     0.00     0.00   100.23     0  00:00        0.00
  C02                  JUNCTION     0.00     0.00    99.85     0  00:00        0.00
  C03                  JUNCTION     0.00     0.00    99.47     0  00:00        0.00
  C04                  JUNCTION     0.00     0.00    98.96     0  00:00        0.00
  C05                  JUNCTION     0.00     0.00    98.71     0  00:00        0.00
  C06                  JUNCTION     0.00     0.00    98.30     0  00:00        0.00
  C07                  JUNCTION     0.00     0.00    97.97     0  00:00        0.00
  C08                  JUNCTION     0.00     0.00    97.34     0  00:00        0.00
  C09                  JUNCTION     0.00     0.00    95.95     0  00:00        0.00
  CO1WEIR              JUNCTION     0.00     0.00   102.15     0  00:00        0.00
  EPS                  JUNCTION     0.00     0.00    50.54     0  00:00        0.00
  F01                  JUNCTION     0.00     0.00    91.85     0  00:00        0.00
  F02                  JUNCTION     0.00     0.00    91.95     0  00:00        0.00
  F03                  JUNCTION     0.00     0.00    92.22     0  00:00        0.00
  F04                  JUNCTION     0.00     0.00    94.55     0  00:00        0.00
  F05                  JUNCTION     0.00     0.00    96.07     0  00:00        0.00
  F06                  JUNCTION     0.00     0.00    98.40     0  00:00        0.00
  F07                  JUNCTION     0.00     0.00    99.05     0  00:00        0.00
  F08                  JUNCTION     0.00     0.00    99.42     0  00:00        0.00
  F09                  JUNCTION     0.00     0.00    99.68     0  00:00        0.00
  F10                  JUNCTION     0.00     0.00   100.41     0  00:00        0.00
  F11                  JUNCTION     0.00     0.00   101.14     0  00:00        0.00
  F12                  JUNCTION     0.00     0.00   101.66     0  00:00        0.00
  F13                  JUNCTION     0.00     0.00   101.86     0  00:00        0.00
  F14                  JUNCTION     0.00     0.00   102.04     0  00:00        0.00
  F15                  JUNCTION     0.00     0.00   102.41     0  00:00        0.00
  F16                  JUNCTION     0.00     0.00   102.90     0  00:00        0.00
  F17                  JUNCTION     0.00     0.00   104.13     0  00:00        0.00
  F18                  JUNCTION     0.00     0.00   106.06     0  00:00        0.00
  F19                  JUNCTION     0.00     0.00   107.46     0  00:00        0.00
  F1A                  JUNCTION     0.00     0.00    91.60     0  00:00        0.00
  F20                  JUNCTION     0.00     0.00   109.15     0  00:00        0.00
  F21                  JUNCTION     0.00     0.00   110.43     0  00:00        0.00
  F22                  JUNCTION     0.00     0.00   111.30     0  00:00        0.00
  F23                  JUNCTION     0.00     0.00   112.18     0  00:00        0.00
  F24                  JUNCTION     0.00     0.00   111.84     0  00:00        0.00
  F24WEIR              JUNCTION     0.00     0.00   113.40     0  00:00        0.00
  F25                  JUNCTION     0.00     0.00   112.20     0  00:00        0.00
  F25WEIR              JUNCTION     0.00     0.00   113.33     0  00:00        0.00
  F26                  JUNCTION     0.00     0.00   106.76     0  00:00        0.00
  F26WEIR              JUNCTION     0.00     0.00   108.72     0  00:00        0.00
  F27                  JUNCTION     0.00     0.00   109.22     0  00:00        0.00
  F27WEIR              JUNCTION     0.00     0.00   112.32     0  00:00        0.00
  F28                  JUNCTION     0.00     0.00   111.76     0  00:00        0.00
  F29                  JUNCTION     0.00     0.00   107.99     0  00:00        0.00
  F29WEIR              JUNCTION     0.00     0.00   107.70     0  00:00        0.00
  F30                  JUNCTION     0.00     0.00   109.60     0  00:00        0.00
  F30WEIR              JUNCTION     0.00     0.00   119.39     0  00:00        0.00
  IPS                  JUNCTION     0.00     0.00    76.50     0  00:00        0.00
  IPS-CTRL             JUNCTION     0.00     0.00    78.50     0  00:00        0.00
  IPS0                 JUNCTION     0.00     0.00    78.50     0  00:00        0.00
  M01                  JUNCTION     0.00     0.00   119.11     0  00:00        0.00
  M02                  JUNCTION     0.00     0.00   116.81     0  00:00        0.00
  M03                  JUNCTION     0.00     0.00   115.51     0  00:00        0.00
  M04                  JUNCTION     0.00     0.00   114.04     0  00:00        0.00
  M05                  JUNCTION     0.00     0.00   112.32     0  00:00        0.00
  M06                  JUNCTION     0.00     0.00   110.99     0  00:00        0.00
  M06A                 JUNCTION     0.00     0.00   110.87     0  00:00        0.00
  M07                  JUNCTION     0.00     0.00   109.82     0  00:00        0.00
  M08                  JUNCTION     0.00     0.00   109.13     0  00:00        0.00
  M09                  JUNCTION     0.00     0.00   107.26     0  00:00        0.00
  M10                  JUNCTION     0.00     0.00   103.81     0  00:00        0.00
  M11                  JUNCTION     0.00     0.00    97.81     0  00:00        0.00
  M12                  JUNCTION     0.00     0.00    97.81     0  00:00        0.00
  M13                  JUNCTION     0.00     0.00    99.61     0  00:00        0.00
  M14                  JUNCTION     0.00     0.00   108.01     0  00:00        0.00
  M15                  JUNCTION     0.00     0.00   115.61     0  00:00        0.00
  MC1                  JUNCTION     0.00     0.00   112.58     0  00:00        0.00
  N01                  JUNCTION     0.00     0.00    98.37     0  00:00        0.00
  N01A                 JUNCTION     0.00     0.00    98.40     0  00:00        0.00
  N02                  JUNCTION     0.00     0.00    98.03     0  00:00        0.00
  N03                  JUNCTION     0.00     0.00    97.94     0  00:00        0.00
  N04                  JUNCTION     0.00     0.00    97.80     0  00:00        0.00
  N05                  JUNCTION     0.00     0.00    97.80     0  00:00        0.00
  N06                  JUNCTION     0.00     0.00    97.33     0  00:00        0.00
  N07                  JUNCTION     0.00     0.00    97.27     0  00:00        0.00
  N08                  JUNCTION     0.00     0.00    97.30     0  00:00        0.00
  N09                  JUNCTION     0.00     0.00    96.94     0  00:00        0.00
  N10                  JUNCTION     0.00     0.00    96.75     0  00:00        0.00
  N11                  JUNCTION     0.00     0.00    96.75     0  00:00        0.00
  N12                  JUNCTION     0.00     0.00    96.46     0  00:00        0.00
  N13                  JUNCTION     0.00     0.00    96.24     0  00:00        0.00
  N13A                 JUNCTION     0.00     0.00    96.24     0  00:00        0.00
  N14                  JUNCTION     0.00     0.00    96.04     0  00:00        0.00
  N15                  JUNCTION     0.00     0.00    95.84     0  00:00        0.00
  N16                  JUNCTION     0.00     0.00    95.55     0  00:00        0.00
  N17                  JUNCTION     0.00     0.00    95.57     0  00:00        0.00
  N18                  JUNCTION     0.00     0.00    95.22     0  00:00        0.00
  N18TAP               JUNCTION     0.00     0.00    94.96     0  00:00        0.00
  N19                  JUNCTION     0.00     0.00    94.74     0  00:00        0.00
  N20                  JUNCTION     0.00     0.00    94.58     0  00:00        0.00
  N21                  JUNCTION     0.00     0.00    94.30     0  00:00        0.00
  N22                  JUNCTION     0.00     0.00    93.95     0  00:00        0.00
  N23                  JUNCTION     0.00     0.00    93.60     0  00:00        0.00
  N24                  JUNCTION     0.00     0.00    93.18     0  00:00        0.00
  N25                  JUNCTION     0.00     0.00    92.80     0  00:00        0.00
  N26                  JUNCTION     0.00     0.00    92.16     0  00:00        0.00
  N27                  JUNCTION     0.00     0.00    91.73     0  00:00        0.00
  N28                  JUNCTION     0.00     0.00    91.65     0  00:00        0.00
  N29                  JUNCTION     0.00     0.00    91.59     0  00:00        0.00
  N30                  JUNCTION     0.00     0.00    90.66     0  00:00        0.00
  N31                  JUNCTION     0.00     0.00    89.79     0  00:00        0.00
  N32                  JUNCTION     0.00     0.00    89.54     0  00:00        0.00
  N33                  JUNCTION     0.00     0.00    89.64     0  00:00        0.00
  N34                  JUNCTION     0.00     0.00    88.00     0  00:00        0.00
  N42                  JUNCTION     0.00     0.00    84.26     0  00:00        0.00
  N43                  JUNCTION     0.00     0.00    83.93     0  00:00        0.00
  N44                  JUNCTION     0.00     0.00    83.00     0  00:00        0.00
  N45                  JUNCTION     0.00     0.00    82.80     0  00:00        0.00
  NF01                 JUNCTION     0.00     0.00    98.50     0  00:00        0.00
  NF02                 JUNCTION     0.00     0.00   103.70     0  00:00        0.00
  NF03                 JUNCTION     0.00     0.00   104.54     0  00:00        0.00
  NF04                 JUNCTION     0.00     0.00   110.00     0  00:00        0.00
  NF05                 JUNCTION     0.00     0.00   113.40     0  00:00        0.00
  NF06                 JUNCTION     0.00     0.00   114.78     0  00:00        0.00
  NF07                 JUNCTION     0.00     0.00   116.50     0  00:00        0.00
  NF08                 JUNCTION     0.00     0.00   107.80     0  00:00        0.00
  NF09                 JUNCTION     0.00     0.00    99.60     0  00:00        0.00
  NF10                 JUNCTION     0.00     0.00    97.25     0  00:00        0.00
  NF11                 JUNCTION     0.00     0.00    97.15     0  00:00        0.00
  NF12                 JUNCTION     0.00     0.00    93.50     0  00:00        0.00
  NI01                 JUNCTION     0.00     0.00    99.23     0  00:00        0.00
  NI02                 JUNCTION     0.00     0.00    99.11     0  00:00        0.00
  NI04                 JUNCTION     0.00     0.00    99.00     0  00:00        0.00
  NIR02                JUNCTION     0.00     0.00    84.38     0  00:00        0.00
  NIR03                JUNCTION     0.00     0.00    84.60     0  00:00        0.00
  NIR04                JUNCTION     0.00     0.00    84.88     0  00:00        0.00
  NIR05                JUNCTION     0.00     0.00    85.24     0  00:00        0.00
  NIR06                JUNCTION     0.00     0.00    85.66     0  00:00        0.00
  NIR07                JUNCTION     0.00     0.00    86.03     0  00:00        0.00
  NIR08                JUNCTION     0.00     0.00    86.85     0  00:00        0.00
  NIR09                JUNCTION     0.00     0.00    87.50     0  00:00        0.00
  NIR10                JUNCTION     0.00     0.00    87.60     0  00:00        0.00
  P01                  JUNCTION     0.00     0.00    89.39     0  00:00        0.00
  P02                  JUNCTION     0.00     0.00    90.45     0  00:00        0.00
  P03                  JUNCTION     0.00     0.00    91.79     0  00:00        0.00
  P04                  JUNCTION     0.00     0.00    92.45     0  00:00        0.00
  PI                   JUNCTION     0.00     0.00    85.00     0  00:00        0.00
  PSA                  JUNCTION     0.00     0.00    93.42     0  00:00        0.00
  PSA-OUT              JUNCTION     0.00     0.00   104.40     0  00:00        0.00
  PSB-IN               JUNCTION     0.00     0.00    93.00     0  00:00        0.00
  PSB-OUT              JUNCTION     0.00     0.00    93.00     0  00:00        0.00
  PSB1                 JUNCTION     0.00     0.00    93.00     0  00:00        0.00
  PSB2                 JUNCTION     0.00     0.00    93.00     0  00:00        0.00
  PSC-OUT              JUNCTION     0.00     0.00    95.00     0  00:00        0.00
  PSD                  JUNCTION     0.00     0.00    97.57     0  00:00        0.00
  PSE                  JUNCTION     0.00     0.00    95.26     0  00:00        0.00
  PSF                  JUNCTION     0.00     0.00    93.82     0  00:00        0.00
  PSH                  JUNCTION     0.00     0.00    85.00     0  00:00        0.00
  PSH-OUT              JUNCTION     0.00     0.00    85.00     0  00:00        0.00
  PSM-IN               JUNCTION     0.00     0.00    83.15     0  00:00        0.00
  PSM-OUT              JUNCTION     0.00     0.00    83.15     0  00:00        0.00
  PSN-OUT              JUNCTION     0.00     0.00    85.00     0  00:00        0.00
  PSQ                  JUNCTION     0.00     0.00    91.08     0  00:00        0.00
  PSQ-OUT              JUNCTION     0.00     0.00    94.00     0  00:00        0.00
  PSR-IN               JUNCTION     0.00     0.00    97.20     0  00:00        0.00
  PSR-OUT              JUNCTION     0.00     0.00    97.20     0  00:00        0.00
  Q01                  JUNCTION     0.00     0.00    96.39     0  00:00        0.00
  Q02                  JUNCTION     0.00     0.00    97.39     0  00:00        0.00
  Q03                  JUNCTION     0.00     0.00    98.79     0  00:00        0.00
  Q04                  JUNCTION     0.00     0.00    95.36     0  00:00        0.00
  Q05                  JUNCTION     0.00     0.00    96.06     0  00:00        0.00
  Q06                  JUNCTION     0.00     0.00    96.89     0  00:00        0.00
  Q07                  JUNCTION     0.00     0.00    97.66     0  00:00        0.00
  Q08                  JUNCTION     0.00     0.00    94.43     0  00:00        0.00
  Q09                  JUNCTION     0.00     0.00    96.03     0  00:00        0.00
  Q10                  JUNCTION     0.00     0.00    96.77     0  00:00        0.00
  Q11                  JUNCTION     0.00     0.00   101.80     0  00:00        0.00
  Q12                  JUNCTION     0.00     0.00   107.35     0  00:00        0.00
  Q13                  JUNCTION     0.00     0.00   108.70     0  00:00        0.00
  Q14                  JUNCTION     0.00     0.00   110.20     0  00:00        0.00
  Q15                  JUNCTION     0.00     0.00   114.48     0  00:00        0.00
  Q16                  JUNCTION     0.00     0.00   116.22     0  00:00        0.00
  Q17                  JUNCTION     0.00     0.00   108.23     0  00:00        0.00
  Q18                  JUNCTION     0.00     0.00   104.47     0  00:00        0.00
  Q19                  JUNCTION     0.00     0.00   101.20     0  00:00        0.00
  Q20                  JUNCTION     0.00     0.00    99.86     0  00:00        0.00
  Q21A                 JUNCTION     0.00     0.00   101.10     0  00:00        0.00
  Q21B                 JUNCTION     0.00     0.00    95.50     0  00:00        0.00
  Q22                  JUNCTION     0.00     0.00    95.75     0  00:00        0.00
  Q23                  JUNCTION     0.00     0.00    95.37     0  00:00        0.00
  Q24                  JUNCTION     0.00     0.00    95.31     0  00:00        0.00
  Q25                  JUNCTION     0.00     0.00    95.00     0  00:00        0.00
  Q26                  JUNCTION     0.00     0.00    94.94     0  00:00        0.00
  Q27                  JUNCTION     0.00     0.00    94.86     0  00:00        0.00
  Q28                  JUNCTION     0.00     0.00    94.81     0  00:00        0.00
  Q29                  JUNCTION     0.00     0.00    94.68     0  00:00        0.00
  Q30                  JUNCTION     0.00     0.00    94.62     0  00:00        0.00
  Q31                  JUNCTION     0.00     0.00    94.44     0  00:00        0.00
  Q32                  JUNCTION     0.00     0.00    94.31     0  00:00        0.00
  Q33                  JUNCTION     0.00     0.00    94.00     0  00:00        0.00
  Q34                  JUNCTION     0.00     0.00    93.81     0  00:00        0.00
  Q35                  JUNCTION     0.00     0.00    93.78     0  00:00        0.00
  Q36                  JUNCTION     0.00     0.00    93.78     0  00:00        0.00
  Q36A                 JUNCTION     0.00     0.00    93.50     0  00:00        0.00
  S01                  JUNCTION     0.00     0.00    97.00     0  00:00        0.00
  S02                  JUNCTION     0.00     0.00    96.51     0  00:00        0.00
  S03                  JUNCTION     0.00     0.00    96.04     0  00:00        0.00
  S04                  JUNCTION     0.00     0.00    95.67     0  00:00        0.00
  S05                  JUNCTION     0.00     0.00    95.02     0  00:00        0.00
  S06                  JUNCTION     0.00     0.00    93.98     0  00:00        0.00
  S07                  JUNCTION     0.00     0.00    93.55     0  00:00        0.00
  S08                  JUNCTION     0.00     0.00    92.99     0  00:00        0.00
  S09                  JUNCTION     0.00     0.00    92.23     0  00:00        0.00
  S10                  JUNCTION     0.00     0.00    91.73     0  00:00        0.00
  S11                  JUNCTION     0.00     0.00    91.13     0  00:00        0.00
  S12                  JUNCTION     0.00     0.00    90.63     0  00:00        0.00
  S13                  JUNCTION     0.00     0.00    90.35     0  00:00        0.00
  S14                  JUNCTION     0.00     0.00    89.98     0  00:00        0.00
  S15                  JUNCTION     0.00     0.00    89.53     0  00:00        0.00
  S16                  JUNCTION     0.00     0.00    89.12     0  00:00        0.00
  S16A                 JUNCTION     0.00     0.00    87.25     0  00:00        0.00
  S16B                 JUNCTION     0.00     0.00    74.50     0  00:00        0.00
  S17                  JUNCTION     0.00     0.00    88.22     0  00:00        0.00
  S18                  JUNCTION     0.00     0.00    87.62     0  00:00        0.00
  S20                  JUNCTION     0.00     0.00    86.24     0  00:00        0.00
  S21                  JUNCTION     0.00     0.00   107.19     0  00:00        0.00
  S21TAP               JUNCTION     0.00     0.00   106.49     0  00:00        0.00
  S22                  JUNCTION     0.00     0.00   105.56     0  00:00        0.00
  S23                  JUNCTION     0.00     0.00   105.37     0  00:00        0.00
  S24                  JUNCTION     0.00     0.00   104.38     0  00:00        0.00
  S25                  JUNCTION     0.00     0.00   104.08     0  00:00        0.00
  S26                  JUNCTION     0.00     0.00   102.76     0  00:00        0.00
  S27                  JUNCTION     0.00     0.00   101.92     0  00:00        0.00
  S27A                 JUNCTION     0.00     0.00   101.88     0  00:00        0.00
  S27BREAK             JUNCTION     0.00     0.00   101.88     0  00:00        0.00
  S28                  JUNCTION     0.00     0.00   101.55     0  00:00        0.00
  S29                  JUNCTION     0.00     0.00   100.80     0  00:00        0.00
  S29TAP               JUNCTION     0.00     0.00    99.01     0  00:00        0.00
  S30                  JUNCTION     0.00     0.00   103.67     0  00:00        0.00
  S31                  JUNCTION     0.00     0.00    97.71     0  00:00        0.00
  S32                  JUNCTION     0.00     0.00    96.92     0  00:00        0.00
  S33                  JUNCTION     0.00     0.00    96.41     0  00:00        0.00
  S33A                 JUNCTION     0.00     0.00    96.30     0  00:00        0.00
  S33BREAK             JUNCTION     0.00     0.00    96.30     0  00:00        0.00
  S35                  JUNCTION     0.00     0.00    95.69     0  00:00        0.00
  S36                  JUNCTION     0.00     0.00    94.84     0  00:00        0.00
  S36SIPHONA           JUNCTION     0.00     0.00    88.32     0  00:00        0.00
  S36SIPHONB           JUNCTION     0.00     0.00    88.09     0  00:00        0.00
  S37                  JUNCTION     0.00     0.00    94.69     0  00:00        0.00
  S38                  JUNCTION     0.00     0.00    94.44     0  00:00        0.00
  S39                  JUNCTION     0.00     0.00    93.66     0  00:00        0.00
  S40                  JUNCTION     0.00     0.00    93.16     0  00:00        0.00
  S41                  JUNCTION     0.00     0.00    92.71     0  00:00        0.00
  S42                  JUNCTION     0.00     0.00    92.17     0  00:00        0.00
  S42TAP               JUNCTION     0.00     0.00    91.97     0  00:00        0.00
  S43                  JUNCTION     0.00     0.00    91.94     0  00:00        0.00
  S44                  JUNCTION     0.00     0.00    91.73     0  00:00        0.00
  S44TAP               JUNCTION     0.00     0.00    91.55     0  00:00        0.00
  S45                  JUNCTION     0.00     0.00    91.32     0  00:00        0.00
  S45TAP               JUNCTION     0.00     0.00    90.96     0  00:00        0.00
  S46A                 JUNCTION     0.00     0.00    90.16     0  00:00        0.00
  S46B                 JUNCTION     0.00     0.00    90.18     0  00:00        0.00
  S47                  JUNCTION     0.00     0.00    89.04     0  00:00        0.00
  S48                  JUNCTION     0.00     0.00    88.88     0  00:00        0.00
  S49                  JUNCTION     0.00     0.00    88.78     0  00:00        0.00
  S50                  JUNCTION     0.00     0.00    88.68     0  00:00        0.00
  S51                  JUNCTION     0.00     0.00    88.60     0  00:00        0.00
  S52                  JUNCTION     0.00     0.00    88.43     0  00:00        0.00
  S52TAP               JUNCTION     0.00     0.00    88.24     0  00:00        0.00
  S53                  JUNCTION     0.00     0.00    88.22     0  00:00        0.00
  S53TAP               JUNCTION     0.00     0.00    88.13     0  00:00        0.00
  S54                  JUNCTION     0.00     0.00    87.95     0  00:00        0.00
  S55                  JUNCTION     0.00     0.00    87.87     0  00:00        0.00
  S55TAP               JUNCTION     0.00     0.00    87.78     0  00:00        0.00
  S56                  JUNCTION     0.00     0.00    87.67     0  00:00        0.00
  S56TAP               JUNCTION     0.00     0.00    87.47     0  00:00        0.00
[...]
  NF08NF071               1.00   1.00  0.00  0.00  0.00  0.00  0.00  0.00  0.00  0.00
  NF09NF081               1.00   1.00  0.00  0.00  0.00  0.00  0.00  0.00  0.00  0.00
  NF10NF091               1.00   1.00  0.00  0.00  0.00  0.00  0.00  0.00  0.00  0.00
  NF11NF101               1.00   1.00  0.00  0.00  0.00  0.00  0.00  0.00  0.00  0.00
  NF12NF111               1.00   1.00  0.00  0.00  0.00  0.00  0.00  0.00  0.00  0.00
  NI01NI021               1.00   1.00  0.00  0.00  0.00  0.00  0.00  0.00  0.00  0.00
  NI02Q36A1               2.15   1.00  0.00  0.00  0.00  0.00  0.00  0.00  0.00  0.00
  NI04P051                1.44   1.00  0.00  0.00  0.00  0.00  0.00  0.00  0.00  0.00
  NIR02N421               1.00   1.00  0.00  0.00  0.00  0.00  0.00  0.00  0.00  0.00
  NIR03NIR021             1.00   1.00  0.00  0.00  0.00  0.00  0.00  0.00  0.00  0.00
  NIR04NIR031             1.00   1.00  0.00  0.00  0.00  0.00  0.00  0.00  0.00  0.00
  NIR05NIR041             1.00   1.00  0.00  0.00  0.00  0.00  0.00  0.00  0.00  0.00
  NIR06NIR051             1.00   1.00  0.00  0.00  0.00  0.00  0.00  0.00  0.00  0.00
  NIR07NIR061             1.00   1.00  0.00  0.00  0.00  0.00  0.00  0.00  0.00  0.00
  NIR08TEMESCAL1          1.00   1.00  0.00  0.00  0.00  0.00  0.00  0.00  0.00  0.00
  NIR09NIR081             1.00   1.00  0.00  0.00  0.00  0.00  0.00  0.00  0.00  0.00
  NIR10NIR091             3.15   1.00  0.00  0.00  0.00  0.00  0.00  0.00  0.00  0.00
  OAK-OUTLET              1.00   1.00  0.00  0.00  0.00  0.00  0.00  0.00  0.00  0.00
  P01PSN1                 1.61   1.00  0.00  0.00  0.00  0.00  0.00  0.00  0.00  0.00
  P02P011                 1.00   1.00  0.00  0.00  0.00  0.00  0.00  0.00  0.00  0.00
  P03P021                 1.00   1.00  0.00  0.00  0.00  0.00  0.00  0.00  0.00  0.00
  P04P031                 1.00   1.00  0.00  0.00  0.00  0.00  0.00  0.00  0.00  0.00
  P05P041                 1.00   1.00  0.00  0.00  0.00  0.00  0.00  0.00  0.00  0.00
  PI-OUTLET               1.00   1.00  0.00  0.00  0.00  0.00  0.00  0.00  0.00  0.00
  PI-PS-TANK             29.73   1.00  0.00  0.00  0.00  0.00  0.00  0.00  0.00  0.00
  PSAAF011                1.00   1.00  0.00  0.00  0.00  0.00  0.00  0.00  0.00  0.00
  PSB-INPSB1              1.00   1.00  0.00  0.00  0.00  0.00  0.00  0.00  0.00  0.00
  PSB-INPSB2              1.00   1.00  0.00  0.00  0.00  0.00  0.00  0.00  0.00  0.00
  PSBA151                 1.00   1.00  0.00  0.00  0.00  0.00  0.00  0.00  0.00  0.00
  PSCA611                 1.00   1.00  0.00  0.00  0.00  0.00  0.00  0.00  0.00  0.00
  PSCAC20                 1.00   1.00  0.00  0.00  0.00  0.00  0.00  0.00  0.00  0.00
  PSHS211                 1.00   1.00  0.00  0.00  0.00  0.00  0.00  0.00  0.00  0.00
  PSMM111                 1.00   1.00  0.00  0.00  0.00  0.00  0.00  0.00  0.00  0.00
  PSN-NF121               1.00   1.00  0.00  0.00  0.00  0.00  0.00  0.00  0.00  0.00
  PSQQ011                 1.00   1.00  0.00  0.00  0.00  0.00  0.00  0.00  0.00  0.00
  PSR-OUT-FM              1.00   1.00  0.00  0.00  0.00  0.00  0.00  0.00  0.00  0.00
  Q01Q021                 1.00   1.00  0.00  0.00  0.00  0.00  0.00  0.00  0.00  0.00
  Q02Q031                 1.00   1.00  0.00  0.00  0.00  0.00  0.00  0.00  0.00  0.00
  Q03Q041                 7.18   1.00  0.00  0.00  0.00  0.00  0.00  0.00  0.00  0.00
  Q04Q051                 1.00   1.00  0.00  0.00  0.00  0.00  0.00  0.00  0.00  0.00
  Q05Q061                 1.00   1.00  0.00  0.00  0.00  0.00  0.00  0.00  0.00  0.00
  Q06Q071                 1.00   1.00  0.00  0.00  0.00  0.00  0.00  0.00  0.00  0.00
  Q07Q081                 2.78   1.00  0.00  0.00  0.00  0.00  0.00  0.00  0.00  0.00
  Q08Q091                 1.00   1.00  0.00  0.00  0.00  0.00  0.00  0.00  0.00  0.00
  Q09Q101                 1.00   1.00  0.00  0.00  0.00  0.00  0.00  0.00  0.00  0.00
  Q10Q111                 1.00   1.00  0.00  0.00  0.00  0.00  0.00  0.00  0.00  0.00
  Q11Q121                 1.00   1.00  0.00  0.00  0.00  0.00  0.00  0.00  0.00  0.00
  Q12Q131                 1.00   1.00  0.00  0.00  0.00  0.00  0.00  0.00  0.00  0.00
  Q13Q141                 1.00   1.00  0.00  0.00  0.00  0.00  0.00  0.00  0.00  0.00
  Q14Q151                 1.00   1.00  0.00  0.00  0.00  0.00  0.00  0.00  0.00  0.00
  Q15Q161                 1.00   1.00  0.00  0.00  0.00  0.00  0.00  0.00  0.00  0.00
  Q16Q171                 1.00   1.00  0.00  0.00  0.00  0.00  0.00  0.00  0.00  0.00
  Q17Q181                 1.00   1.00  0.00  0.00  0.00  0.00  0.00  0.00  0.00  0.00
  Q18Q191                 1.00   1.00  0.00  0.00  0.00  0.00  0.00  0.00  0.00  0.00
  Q19Q201                 1.00   1.00  0.00  0.00  0.00  0.00  0.00  0.00  0.00  0.00
  Q20Q211                 1.00   1.00  0.00  0.00  0.00  0.00  0.00  0.00  0.00  0.00
  Q21AB                   3.95   1.00  0.00  0.00  0.00  0.00  0.00  0.00  0.00  0.00
  Q21AI031                1.78   1.00  0.00  0.00  0.00  0.00  0.00  0.00  0.00  0.00
  Q21Q221                 1.00   1.00  0.00  0.00  0.00  0.00  0.00  0.00  0.00  0.00
  Q21Q222                 1.00   1.00  0.00  0.00  0.00  0.00  0.00  0.00  0.00  0.00
  Q22Q231                 1.00   1.00  0.00  0.00  0.00  0.00  0.00  0.00  0.00  0.00
  Q23Q241                 2.69   1.00  0.00  0.00  0.00  0.00  0.00  0.00  0.00  0.00
  Q23Q242                 2.69   1.00  0.00  0.00  0.00  0.00  0.00  0.00  0.00  0.00
  Q24Q251                 1.00   1.00  0.00  0.00  0.00  0.00  0.00  0.00  0.00  0.00
  Q25Q261                 1.14   1.00  0.00  0.00  0.00  0.00  0.00  0.00  0.00  0.00
  Q26Q271                 2.40   1.00  0.00  0.00  0.00  0.00  0.00  0.00  0.00  0.00
  Q27Q281                 1.85   1.00  0.00  0.00  0.00  0.00  0.00  0.00  0.00  0.00
  Q28Q291                 1.31   1.00  0.00  0.00  0.00  0.00  0.00  0.00  0.00  0.00
  Q29Q301                 2.37   1.00  0.00  0.00  0.00  0.00  0.00  0.00  0.00  0.00
  Q30Q311                 1.00   1.00  0.00  0.00  0.00  0.00  0.00  0.00  0.00  0.00
  Q31Q321                 1.00   1.00  0.00  0.00  0.00  0.00  0.00  0.00  0.00  0.00
  Q32Q331                 1.00   1.00  0.00  0.00  0.00  0.00  0.00  0.00  0.00  0.00
  Q33Q341                 1.00   1.00  0.00  0.00  0.00  0.00  0.00  0.00  0.00  0.00
  Q34Q351                 2.77   1.00  0.00  0.00  0.00  0.00  0.00  0.00  0.00  0.00
  Q35Q361                 2.66   1.00  0.00  0.00  0.00  0.00  0.00  0.00  0.00  0.00
  Q36Q36A1                4.93   1.00  0.00  0.00  0.00  0.00  0.00  0.00  0.00  0.00
  S01S021                 1.00   1.00  0.00  0.00  0.00  0.00  0.00  0.00  0.00  0.00
  S02S031                 1.00   1.00  0.00  0.00  0.00  0.00  0.00  0.00  0.00  0.00
  S03S041                 1.00   1.00  0.00  0.00  0.00  0.00  0.00  0.00  0.00  0.00
  S04S051                 1.00   1.00  0.00  0.00  0.00  0.00  0.00  0.00  0.00  0.00
  S05S061                 1.00   1.00  0.00  0.00  0.00  0.00  0.00  0.00  0.00  0.00
  S06S071                 1.00   1.00  0.00  0.00  0.00  0.00  0.00  0.00  0.00  0.00
  S07S081                 1.00   1.00  0.00  0.00  0.00  0.00  0.00  0.00  0.00  0.00
  S08S091                 1.00   1.00  0.00  0.00  0.00  0.00  0.00  0.00  0.00  0.00
  S09S101                 1.00   1.00  0.00  0.00  0.00  0.00  0.00  0.00  0.00  0.00
  S10S111                 1.00   1.00  0.00  0.00  0.00  0.00  0.00  0.00  0.00  0.00
  S11S121                 1.00   1.00  0.00  0.00  0.00  0.00  0.00  0.00  0.00  0.00
  S12S131                 1.00   1.00  0.00  0.00  0.00  0.00  0.00  0.00  0.00  0.00
  S13S141                 1.00   1.00  0.00  0.00  0.00  0.00  0.00  0.00  0.00  0.00
  S14S151                 1.00   1.00  0.00  0.00  0.00  0.00  0.00  0.00  0.00  0.00
  S15S161                 1.00   1.00  0.00  0.00  0.00  0.00  0.00  0.00  0.00  0.00
  S16AOAK1                1.00   1.00  0.00  0.00  0.00  0.00  0.00  0.00  0.00  0.00
  S16AS171                1.00   1.00  0.00  0.00  0.00  0.00  0.00  0.00  0.00  0.00
  S16S16A1                1.00   1.00  0.00  0.00  0.00  0.00  0.00  0.00  0.00  0.00
  S17S181                 1.00   1.00  0.00  0.00  0.00  0.00  0.00  0.00  0.00  0.00
  S18S191                 1.00   1.00  0.00  0.00  0.00  0.00  0.00  0.00  0.00  0.00
  S20PSH1                 1.07   1.00  0.00  0.00  0.00  0.00  0.00  0.00  0.00  0.00
  S21S21TAP1              1.00   1.00  0.00  0.00  0.00  0.00  0.00  0.00  0.00  0.00
  S21TAPS221              1.00   1.00  0.00  0.00  0.00  0.00  0.00  0.00  0.00  0.00
  S22S231                 1.07   1.00  0.00  0.00  0.00  0.00  0.00  0.00  0.00  0.00
  S22S232                 1.07   1.00  0.00  0.00  0.00  0.00  0.00  0.00  0.00  0.00
  S23S241                 1.00   1.00  0.00  0.00  0.00  0.00  0.00  0.00  0.00  0.00
  S24S251                 1.00   1.00  0.00  0.00  0.00  0.00  0.00  0.00  0.00  0.00
  S25S261                 1.00   1.00  0.00  0.00  0.00  0.00  0.00  0.00  0.00  0.00
  S26S271                 1.00   1.00  0.00  0.00  0.00  0.00  0.00  0.00  0.00  0.00
  S27BREAKS281            1.00   1.00  0.00  0.00  0.00  0.00  0.00  0.00  0.00  0.00
  S27S27BREAK1            1.77   1.00  0.00  0.00  0.00  0.00  0.00  0.00  0.00  0.00
  S28S291                 1.00   1.00  0.00  0.00  0.00  0.00  0.00  0.00  0.00  0.00
  S29S29TAP1              1.00   1.00  0.00  0.00  0.00  0.00  0.00  0.00  0.00  0.00
  S29TAPS311              1.00   1.00  0.00  0.00  0.00  0.00  0.00  0.00  0.00  0.00
  S30S29TAP1              1.00   1.00  0.00  0.00  0.00  0.00  0.00  0.00  0.00  0.00
  S31S321                 2.46   1.00  0.00  0.00  0.00  0.00  0.00  0.00  0.00  0.00
  S32S331                 1.00   1.00  0.00  0.00  0.00  0.00  0.00  0.00  0.00  0.00
  S33BREAKS351            1.00   1.00  0.00  0.00  0.00  0.00  0.00  0.00  0.00  0.00
  S33S33BREAK1            1.93   1.00  0.00  0.00  0.00  0.00  0.00  0.00  0.00  0.00
  S35S361                 1.00   1.00  0.00  0.00  0.00  0.00  0.00  0.00  0.00  0.00
  S36S36SIPHONA1          3.24   1.00  0.00  0.00  0.00  0.00  0.00  0.00  0.00  0.00
  S36S36SIPHONB1          3.28   1.00  0.00  0.00  0.00  0.00  0.00  0.00  0.00  0.00
  S36SIPHONAS371          3.21   1.00  0.00  0.00  0.00  0.00  0.00  0.00  0.00  0.00
  S36SIPHONBS371          3.25   1.00  0.00  0.00  0.00  0.00  0.00  0.00  0.00  0.00
  S37S381                 1.00   1.00  0.00  0.00  0.00  0.00  0.00  0.00  0.00  0.00
  S38S391                 1.00   1.00  0.00  0.00  0.00  0.00  0.00  0.00  0.00  0.00
  S39S401                 3.69   1.00  0.00  0.00  0.00  0.00  0.00  0.00  0.00  0.00
  S40S411                 1.00   1.00  0.00  0.00  0.00  0.00  0.00  0.00  0.00  0.00
  S41S421                 1.00   1.00  0.00  0.00  0.00  0.00  0.00  0.00  0.00  0.00
  S42SACDIV1              1.00   1.00  0.00  0.00  0.00  0.00  0.00  0.00  0.00  0.00
  S42TAPS431              1.35   1.00  0.00  0.00  0.00  0.00  0.00  0.00  0.00  0.00
  S43S441                 1.00   1.00  0.00  0.00  0.00  0.00  0.00  0.00  0.00  0.00
  S44S44TAP1              1.00   1.00  0.00  0.00  0.00  0.00  0.00  0.00  0.00  0.00
  S44TAPS451              1.00   1.00  0.00  0.00  0.00  0.00  0.00  0.00  0.00  0.00
  S45S45TAP1              1.00   1.00  0.00  0.00  0.00  0.00  0.00  0.00  0.00  0.00
  S45TAPS46A1             4.63   1.00  0.00  0.00  0.00  0.00  0.00  0.00  0.00  0.00
  S46AS471                1.00   1.00  0.00  0.00  0.00  0.00  0.00  0.00  0.00  0.00
  S46BS46A1               6.20   1.00  0.00  0.00  0.00  0.00  0.00  0.00  0.00  0.00
  S47S481                 1.00   1.00  0.00  0.00  0.00  0.00  0.00  0.00  0.00  0.00
  S48S491                 1.00   1.00  0.00  0.00  0.00  0.00  0.00  0.00  0.00  0.00
  S49S501                 1.00   1.00  0.00  0.00  0.00  0.00  0.00  0.00  0.00  0.00
  S50S511                 1.00   1.00  0.00  0.00  0.00  0.00  0.00  0.00  0.00  0.00
  S51S521                 1.00   1.00  0.00  0.00  0.00  0.00  0.00  0.00  0.00  0.00
  S52S52TAP1              1.00   1.00  0.00  0.00  0.00  0.00  0.00  0.00  0.00  0.00
  S52TAPS531              1.38   1.00  0.00  0.00  0.00  0.00  0.00  0.00  0.00  0.00
  S53S53TAP1              1.00   1.00  0.00  0.00  0.00  0.00  0.00  0.00  0.00  0.00
  S53TAPS541              1.00   1.00  0.00  0.00  0.00  0.00  0.00  0.00  0.00  0.00
  S54S551                 1.00   1.00  0.00  0.00  0.00  0.00  0.00  0.00  0.00  0.00
  S55S55TAP1              1.00   1.00  0.00  0.00  0.00  0.00  0.00  0.00  0.00  0.00
  S55TAPS561              1.00   1.00  0.00  0.00  0.00  0.00  0.00  0.00  0.00  0.00
  S56S56TAP1              1.00   1.00  0.00  0.00  0.00  0.00  0.00  0.00  0.00  0.00
  S56TAPS571              1.00   1.00  0.00  0.00  0.00  0.00  0.00  0.00  0.00  0.00
  S57S581                 1.00   1.00  0.00  0.00  0.00  0.00  0.00  0.00  0.00  0.00
  S58S591                 1.00   1.00  0.00  0.00  0.00  0.00  0.00  0.00  0.00  0.00
  S59S601                 1.00   1.00  0.00  0.00  0.00  0.00  0.00  0.00  0.00  0.00
  S60AS611                1.00   1.00  0.00  0.00  0.00  0.00  0.00  0.00  0.00  0.00
  S60S60A1                1.00   1.00  0.00  0.00  0.00  0.00  0.00  0.00  0.00  0.00
  S61AS611                2.49   1.00  0.00  0.00  0.00  0.00  0.00  0.00  0.00  0.00
  S61S621                 1.00   1.00  0.00  0.00  0.00  0.00  0.00  0.00  0.00  0.00
  S62S631                 1.00   1.00  0.00  0.00  0.00  0.00  0.00  0.00  0.00  0.00
  S63S641                 1.00   1.00  0.00  0.00  0.00  0.00  0.00  0.00  0.00  0.00
  S64S651                 1.00   1.00  0.00  0.00  0.00  0.00  0.00  0.00  0.00  0.00
  S65S661                 1.00   1.00  0.00  0.00  0.00  0.00  0.00  0.00  0.00  0.00
  S66S671                 1.00   1.00  0.00  0.00  0.00  0.00  0.00  0.00  0.00  0.00
  S67S681                 1.00   1.00  0.00  0.00  0.00  0.00  0.00  0.00  0.00  0.00
  S68AS691                1.00   1.00  0.00  0.00  0.00  0.00  0.00  0.00  0.00  0.00
  S68S68A1                1.00   1.00  0.00  0.00  0.00  0.00  0.00  0.00  0.00  0.00
  S69S701                 1.00   1.00  0.00  0.00  0.00  0.00  0.00  0.00  0.00  0.00
  S70S70A1                3.43   1.00  0.00  0.00  0.00  0.00  0.00  0.00  0.00  0.00
  SAC-OUTLET              1.00   1.00  0.00  0.00  0.00  0.00  0.00  0.00  0.00  0.00
  SACDIVS42TAP1           1.95   1.00  0.00  0.00  0.00  0.00  0.00  0.00  0.00  0.00
  SAC_GATE                1.00   1.00  0.00  0.00  0.00  0.00  0.00  0.00  0.00  0.00
  SD297-21                1.00   1.00  0.00  0.00  0.00  0.00  0.00  0.00  0.00  0.00
  SD297-32                1.00   1.00  0.00  0.00  0.00  0.00  0.00  0.00  0.00  0.00
  SD297-43                1.00   1.00  0.00  0.00  0.00  0.00  0.00  0.00  0.00  0.00
  SD297-54                1.00   1.00  0.00  0.00  0.00  0.00  0.00  0.00  0.00  0.00
  SD70AIPS0               2.42   1.00  0.00  0.00  0.00  0.00  0.00  0.00  0.00  0.00
  SIPHON30A               4.33   1.00  0.00  0.00  0.00  0.00  0.00  0.00  0.00  0.00
  SIPHON30B               1.00   1.00  0.00  0.00  0.00  0.00  0.00  0.00  0.00  0.00
  SIPHON30C               2.20   1.00  0.00  0.00  0.00  0.00  0.00  0.00  0.00  0.00
  SIPHON3RDA              1.00   1.00  0.00  0.00  0.00  0.00  0.00  0.00  0.00  0.00
  SIPHON48A               5.95   1.00  0.00  0.00  0.00  0.00  0.00  0.00  0.00  0.00
  SIPHON48B               1.00   1.00  0.00  0.00  0.00  0.00  0.00  0.00  0.00  0.00
  SIPHON48C               3.07   1.00  0.00  0.00  0.00  0.00  0.00  0.00  0.00  0.00
  STRUCTD-IPS             1.00   1.00  0.00  0.00  0.00  0.00  0.00  0.00  0.00  0.00
  T01S181                 1.00   1.00  0.00  0.00  0.00  0.00  0.00  0.00  0.00  0.00
  T02T011                 1.00   1.00  0.00  0.00  0.00  0.00  0.00  0.00  0.00  0.00
  T03T021                 1.00   1.00  0.00  0.00  0.00  0.00  0.00  0.00  0.00  0.00
  TEMESCALNIR071          1.00   1.00  0.00  0.00  0.00  0.00  0.00  0.00  0.00  0.00
  TPIPEN                  1.00   1.00  0.00  0.00  0.00  0.00  0.00  0.00  0.00  0.00
  TPIPES                  1.00   1.00  0.00  0.00  0.00  0.00  0.00  0.00  0.00  0.00
  WWTP-DRAIN              1.15   1.00  0.00  0.00  0.00  0.00  0.00  0.00  0.00  0.00
  WWTP-OUTLET             1.00   1.00  0.00  0.00  0.00  0.00  0.00  0.00  0.00  0.00
  
  
  *************************
  Conduit Surcharge Summary
  *************************
  
  No conduits were surcharged.
  
  
  ***************
  Pumping Summary
  ***************
  
  ---------------------------------------------------------------------------------------------------------
                                                  Min       Avg       Max     Total     Power    % Time Off
                        Percent   Number of      Flow      Flow      Flow    Volume     Usage    Pump Curve
  Pump                 Utilized   Start-Ups       MGD       MGD       MGD  10^6 gal     Kw-hr    Low   High
  ---------------------------------------------------------------------------------------------------------
  PITANK                   0.00           0      0.00      0.00      0.00     0.000      0.00    0.0    0.0
  PSA                      0.00           0      0.00      0.00      0.00     0.000      0.00    0.0    0.0
  PSB-DRY                  0.00           0      0.00      0.00      0.00     0.000      0.00    0.0    0.0
  PSB-WET                  0.00           0      0.00      0.00      0.00     0.000      0.00    0.0    0.0
  PSC-LARGE                0.00           0      0.00      0.00      0.00     0.000      0.00    0.0    0.0
  PSC-SMALL                0.00           0      0.00      0.00      0.00     0.000      0.00    0.0    0.0
  PSDA191                  0.00           0      0.00      0.00      0.00     0.000      0.00    0.0    0.0
  PSEA281                  0.00           0      0.00      0.00      0.00     0.000      0.00    0.0    0.0
  PSFA431                  0.00           0      0.00      0.00      0.00     0.000      0.00    0.0    0.0
  PSH1                     0.00           0      0.00      0.00      0.00     0.000      0.00    0.0    0.0
  PSH2                     0.00           0      0.00      0.00      0.00     0.000      0.00    0.0    0.0
  PSH3                     0.00           0      0.00      0.00      0.00     0.000      0.00    0.0    0.0
  PSM                      0.00           0      0.00      0.00      0.00     0.000      0.00    0.0    0.0
  PSN1                     0.00           0      0.00      0.00      0.00     0.000      0.00    0.0    0.0
  PSN2                     0.00           0      0.00      0.00      0.00     0.000      0.00    0.0    0.0
  PSN3                     0.00           0      0.00      0.00      0.00     0.000      0.00    0.0    0.0
  PSOAK                    0.00           0      0.00      0.00      0.00     0.000      0.00    0.0    0.0
  PSQ                      0.00           0      0.00      0.00      0.00     0.000      0.00    0.0    0.0
  PSR                      0.00           0      0.00      0.00      0.00     0.000      0.00    0.0    0.0
  PSSAC                    0.00           0      0.00      0.00      0.00     0.000      0.00    0.0    0.0
  TIMERN                   0.00           0      0.00      0.00      0.00     0.000      0.00    0.0    0.0
  TIMERS                   0.00           0      0.00      0.00      0.00     0.000      0.00    0.0    0.0
  TPUMP1N                  0.00           0      0.00      0.00      0.00     0.000      0.00    0.0    0.0
  TPUMP1S                  0.00           0      0.00      0.00      0.00     0.000      0.00    0.0    0.0
  TPUMP2N                  0.00           0      0.00      0.00      0.00     0.000      0.00    0.0    0.0
  TPUMP2S                  0.00           0      0.00      0.00      0.00     0.000      0.00    0.0    0.0
  

  Analysis begun on:  Wed Jan 02 04:51:26 2019
  Analysis ended on:  Wed Jan 02 04:52:36 2019
  Total elapsed time: 00:01:10