
  EPA STORM WATER MANAGEMENT MODEL - VERSION 5.1 (Build 5.1.012)
  --------------------------------------------------------------

  Runoff/Washoff Example 
  
  
  *********************************************************
  NOTE: The summary statistics displayed in this report are
  based on results found at every computational time step,  
  not just on results from each reporting time step.
  *********************************************************
  
  ****************
  Analysis Options
  ****************
  Flow Units ............... CFS
  Process Models:
    Rainfall/Runoff ........ YES
    RDII ................... NO
    Snowmelt ............... NO
    Groundwater ............ NO
    Flow Routing ........... YES
    Ponding Allowed ........ NO
    Water Quality .......... YES
  Infiltration Method ...... HORTON
  Flow Routing Method ...... DYNWAVE
  Starting Date ............ 01/01/2002 00:00:00
  Ending Date .............. 01/02/2002 00:00:00
  Antecedent Dry Days ...... 0.0
  Report Time Step ......... 00:05:00
  Wet Time Step ............ 00:05:00
  Dry Time Step ............ 01:00:00
  Routing Time Step ........ 10.00 sec
  Variable Time Step ....... YES
  Maximum Trials ........... 8
  Number of Threads ........ 1
  Head Tolerance ........... 0.005000 ft
  
  
  **************************        Volume         Depth
  Runoff Quantity Continuity     acre-feet        inches
  **************************     ---------       -------
  Total Precipitation ......        12.129         2.050
  Evaporation Loss .........         0.000         0.000
  Infiltration Loss ........         7.841         1.325
  Surface Runoff ...........         4.184         0.707
  Final Storage ............         0.105         0.018
  Continuity Error (%) .....        -0.008
  
  
  **************************           TSS          Lead
  Runoff Quality Continuity            lbs           lbs
  **************************    ----------    ----------
  Initial Buildup ..........         0.000         0.000
  Surface Buildup ..........       849.492         0.170
  Wet Deposition ...........         0.000         0.000
  Sweeping Removal .........         0.000         0.000
  Infiltration Loss ........         0.000         0.000
  BMP Removal ..............         0.000         0.000
  Surface Runoff ...........       849.492         0.170
  Remaining Buildup ........         0.000         0.000
  Continuity Error (%) .....         0.000         0.000
  
  
  **************************        Volume        Volume
  Flow Routing Continuity        acre-feet      10^6 gal
  **************************     ---------     ---------
  Dry Weather Inflow .......         0.000         0.000
  Wet Weather Inflow .......         4.184         1.363
  Groundwater Inflow .......         0.000         0.000
  RDII Inflow ..............         0.000         0.000
  External Inflow ..........         0.000         0.000
  External Outflow .........         4.087         1.332
  Flooding Loss ............         0.000         0.000
  Evaporation Loss .........         0.000         0.000
  Exfiltration Loss ........         0.000         0.000
  Initial Stored Volume ....         0.000         0.000
  Final Stored Volume ......         0.097         0.032
  Continuity Error (%) .....        -0.011
  
  
  **************************           TSS          Lead
  Quality Routing Continuity           lbs           lbs
  **************************    ----------    ----------
  Dry Weather Inflow .......         0.000         0.000
  Wet Weather Inflow .......       849.454         0.170
  Groundwater Inflow .......         0.000         0.000
  RDII Inflow ..............         0.000         0.000
  External Inflow ..........         0.000         0.000
  External Outflow .........       830.616         0.166
  Flooding Loss ............         0.000         0.000
  Exfiltration Loss ........         0.000         0.000
  Mass Reacted .............         0.000         0.000
  Initial Stored Mass ......         0.000         0.000
  Final Stored Mass ........        19.047         0.004
  Continuity Error (%) .....        -0.025        -0.025
  
  
  ***************************
  Time-Step Critical Elements
  ***************************
  Link 15 (31.09%)
  
  
  ********************************
  Highest Flow Instability Indexes
  ********************************
  All links are stable.
  
  
  *************************
  Routing Time Step Summary
  *************************
  Minimum Time Step           :     4.36 sec
  Average Time Step           :     9.08 sec
  Maximum Time Step           :    10.00 sec
  Percent in Steady State     :    -0.00
  Average Iterations per Step :     2.00
  Percent Not Converging      :     0.00
  
  
  ***************************
  Subcatchment Runoff Summary
  ***************************
  
  --------------------------------------------------------------------------------------------------------
                            Total      Total      Total      Total      Total       Total     Peak  Runoff
                           Precip      Runon       Evap      Infil     Runoff      Runoff   Runoff   Coeff
  Subcatchment                 in         in         in         in         in    10^6 gal      CFS
  --------------------------------------------------------------------------------------------------------
  1                          2.05       0.00       0.00       1.03       1.00        0.27     3.60   0.488
  2                          2.05       0.00       0.00       1.03       1.00        0.27     3.60   0.488
  3                          2.05       0.00       0.00       1.03       1.00        0.14     1.95   0.490
  4                          2.05       0.00       0.00       1.03       1.00        0.14     1.95   0.490
  5                          2.05       0.00       0.00       1.02       1.00        0.41     4.91   0.486
  6                          2.05       0.00       0.00       1.84       0.20        0.07     0.96   0.098
  7                          2.05       0.00       0.00       1.84       0.20        0.02     0.32   0.098
  8                          2.05       0.00       0.00       1.85       0.20        0.05     0.80   0.098
  
  
  ****************************
  Subcatchment Washoff Summary
  ****************************
  
  ------------------------------------------------
                                 TSS          Lead
  Subcatchment                   lbs           lbs
  ------------------------------------------------
  1                          169.236         0.034
  2                          169.236         0.034
  3                           84.914         0.017
  4                           84.914         0.017
  5                          253.177         0.051
  6                           40.571         0.008
  7                           13.600         0.003
  8                           33.845         0.007
  ------------------------------------------------
  System                     849.492         0.170
  
  
  ******************
  Node Depth Summary
  ******************
  
  ---------------------------------------------------------------------------------
                                 Average  Maximum  Maximum  Time of Max    Reported
                                   Depth    Depth      HGL   Occurrence   Max Depth
  Node                 Type         Feet     Feet     Feet  days hr:min        Feet
  ---------------------------------------------------------------------------------
  9                    JUNCTION     0.17     0.23  1000.23     0  06:31        0.23
  10                   JUNCTION     0.24     0.56   995.56     0  04:00        0.56
  11                   JUNCTION     0.00     0.00  1005.00     0  00:00        0.00
  12                   JUNCTION     0.00     0.00  1010.00     0  00:00        0.00
  13                   JUNCTION     0.10     0.43   995.43     0  04:00        0.43
  14                   JUNCTION     0.12     0.49   990.49     0  04:00        0.49
  15                   JUNCTION     0.25     0.93   987.93     0  04:00        0.93
  16                   JUNCTION     0.32     0.94   985.94     0  04:00        0.94
  17                   JUNCTION     0.30     0.91   980.91     0  04:01        0.91
  18                   JUNCTION     0.31     0.92   975.92     0  04:02        0.92
  19                   JUNCTION     0.04     0.16  1010.16     0  04:00        0.16
  20                   JUNCTION     0.03     0.12  1005.12     0  04:00        0.12
  21                   JUNCTION     0.24     0.58   990.58     0  04:00        0.58
  22                   JUNCTION     0.27     0.70   987.70     0  04:00        0.70
  23                   JUNCTION     0.06     0.28   990.28     0  04:00        0.28
  24                   JUNCTION     0.33     0.98   984.98     0  04:01        0.98
  26                   OUTFALL      0.31     0.92   970.92     0  04:02        0.92
  25                   STORAGE      1.27     2.55  1003.55     0  06:31        2.55
  28                   STORAGE      0.20     0.50   976.50     0  05:15        0.50
  
  
  *******************
  Node Inflow Summary
  *******************
  
  -------------------------------------------------------------------------------------------------
                                  Maximum  Maximum                  Lateral       Total        Flow
                                  Lateral    Total  Time of Max      Inflow      Inflow     Balance
                                   Inflow   Inflow   Occurrence      Volume      Volume       Error
  Node                 Type           CFS      CFS  days hr:min    10^6 gal    10^6 gal     Percent
  -------------------------------------------------------------------------------------------------
  9                    JUNCTION      0.00     0.63     0  06:31           0       0.246       0.054
  10                   JUNCTION      3.60     4.04     0  04:00       0.272       0.518       0.052
  11                   JUNCTION      0.00     0.00     0  00:00           0           0       0.000 gal
  12                   JUNCTION      0.00     0.00     0  00:00           0           0       0.000 gal
  13                   JUNCTION      1.95     1.95     0  04:00       0.136       0.136      -0.003
  14                   JUNCTION      0.00     1.95     0  04:00           0       0.136      -0.007
  15                   JUNCTION      4.91     6.85     0  04:00       0.405       0.542       0.008
  16                   JUNCTION      0.00    13.12     0  04:00           0        1.22       0.019
  17                   JUNCTION      0.00    14.07     0  04:01           0        1.28       0.020
  18                   JUNCTION      0.00    14.26     0  04:01           0        1.33       0.017
  19                   JUNCTION      0.32     0.32     0  04:00      0.0219      0.0219      -0.014
  20                   JUNCTION      0.00     0.32     0  04:00           0      0.0219      -0.030
  21                   JUNCTION      0.00     4.35     0  04:00           0       0.539       0.024
  22                   JUNCTION      1.95     6.29     0  04:00       0.136       0.675       0.024
  23                   JUNCTION      0.96     0.96     0  04:00      0.0655      0.0655      -0.054
  24                   JUNCTION      0.00    14.07     0  04:00           0        1.28       0.017
  26                   OUTFALL       0.00    14.26     0  04:02           0        1.33       0.000
  25                   STORAGE       3.60     3.60     0  04:00       0.272       0.272       0.000
  28                   STORAGE       0.80     0.80     0  04:00      0.0546      0.0546       0.001
  
  
  **********************
  Node Surcharge Summary
  **********************
  
  No nodes were surcharged.
  
  
  *********************
  Node Flooding Summary
  *********************
  
  No nodes were flooded.
  
  
  **********************
  Storage Volume Summary
  **********************
  
  --------------------------------------------------------------------------------------------------
                         Average     Avg  Evap Exfil       Maximum     Max    Time of Max    Maximum
                          Volume    Pcnt  Pcnt  Pcnt        Volume    Pcnt     Occurrence    Outflow
  Storage Unit          1000 ft3    Full  Loss  Loss      1000 ft3    Full    days hr:min        CFS
  --------------------------------------------------------------------------------------------------
  25                      12.746      21     0     0        25.530      43       0  06:31       0.63
  28                       2.045       4     0     0         4.999      10       0  05:15       0.23
  
  
  ***********************
  Outfall Loading Summary
  ***********************
  
  ---------------------------------------------------------------------------------------
                         Flow       Avg       Max       Total         Total         Total
                         Freq      Flow      Flow      Volume           TSS          Lead
  Outfall Node           Pcnt       CFS       CFS    10^6 gal           lbs           lbs
  ---------------------------------------------------------------------------------------
  26                    95.34      2.84     14.26       1.332       830.621         0.166
  ---------------------------------------------------------------------------------------
  System                95.34      2.84     14.26       1.332       830.621         0.166
  
  
  ********************
  Link Flow Summary
  ********************
  
  -----------------------------------------------------------------------------
                                 Maximum  Time of Max   Maximum    Max/    Max/
                                  |Flow|   Occurrence   |Veloc|    Full    Full
  Link                 Type          CFS  days hr:min    ft/sec    Flow   Depth
  -----------------------------------------------------------------------------
  1                    CONDUIT      0.63     0  06:31      4.32    0.12    0.38
  2                    CONDUIT      0.00     0  00:00      0.00    0.00    0.00
  3                    CONDUIT      0.00     0  00:00      0.00    0.00    0.37
  4                    CONDUIT      0.32     0  04:00      5.57    0.09    0.19
  5                    CONDUIT      0.32     0  04:00      2.38    0.05    0.47
  6                    CONDUIT      4.03     0  04:00      6.72    0.29    0.37
  7                    CONDUIT      4.35     0  04:00      6.05    0.32    0.43
  8                    CONDUIT      6.28     0  04:00      5.19    0.26    0.41
  10                   CONDUIT     14.06     0  04:01     10.01    0.43    0.46
  11                   CONDUIT      1.95     0  04:00      5.56    0.38    0.46
  12                   CONDUIT      1.95     0  04:00      3.29    0.49    0.71
  13                   CONDUIT      6.84     0  04:00      5.90    0.71    0.62
  14                   CONDUIT      0.96     0  04:00      1.96    0.17    0.63
  15                   CONDUIT     13.12     0  04:01      8.78    0.45    0.48
  16                   CONDUIT     14.07     0  04:01      9.59    0.48    0.47
  9                    CONDUIT     14.26     0  04:02     10.09    0.43    0.46
  17                   ORIFICE      0.63     0  06:31                      1.00
  18                   ORIFICE      0.23     0  05:15                      1.00
  
  
  ***************************
  Flow Classification Summary
  ***************************
  
  -------------------------------------------------------------------------------------
                      Adjusted    ---------- Fraction of Time in Flow Class ---------- 
                       /Actual         Up    Down  Sub   Sup   Up    Down  Norm  Inlet 
  Conduit               Length    Dry  Dry   Dry   Crit  Crit  Crit  Crit  Ltd   Ctrl  
  -------------------------------------------------------------------------------------
  1                       1.00   0.04  0.01  0.00  0.23  0.73  0.00  0.00  0.36  0.00
  2                       1.00   1.00  0.00  0.00  0.00  0.00  0.00  0.00  0.00  0.00
  3                       1.00   0.04  0.96  0.00  0.00  0.00  0.00  0.00  0.00  0.00
  4                       1.00   0.04  0.00  0.00  0.33  0.63  0.00  0.00  0.00  0.00
  5                       1.00   0.04  0.00  0.00  0.91  0.05  0.00  0.00  0.95  0.00
  6                       1.00   0.04  0.00  0.00  0.00  0.00  0.00  0.96  0.00  0.00
  7                       1.00   0.04  0.00  0.00  0.01  0.95  0.00  0.00  0.96  0.00
  8                       1.00   0.04  0.00  0.00  0.00  0.96  0.00  0.00  0.42  0.00
  10                      1.00   0.04  0.00  0.00  0.00  0.96  0.00  0.00  0.84  0.00
  11                      1.00   0.04  0.00  0.00  0.00  0.96  0.00  0.00  0.94  0.00
  12                      1.00   0.04  0.00  0.00  0.96  0.00  0.00  0.00  0.96  0.00
  13                      1.00   0.04  0.00  0.00  0.61  0.35  0.00  0.00  0.90  0.00
  14                      1.00   0.04  0.00  0.00  0.95  0.02  0.00  0.00  0.95  0.00
  15                      1.00   0.04  0.00  0.00  0.01  0.96  0.00  0.00  0.85  0.00
  16                      1.00   0.04  0.00  0.00  0.00  0.96  0.00  0.00  0.00  0.00
  9                       1.00   0.04  0.00  0.00  0.00  0.96  0.00  0.00  0.41  0.00
  
  
  *************************
  Conduit Surcharge Summary
  *************************
  
  No conduits were surcharged.
  
  
  ***************************
  Link Pollutant Load Summary
  ***************************
  
  ------------------------------------------------
                                 TSS          Lead
  Link                           lbs           lbs
  ------------------------------------------------
  1                          153.555         0.031
  2                            0.000         0.000
  3                            0.000         0.000
  4                           13.600         0.003
  5                           13.654         0.003
  6                          322.631         0.065
  7                          336.203         0.067
  8                          421.015         0.084
  10                         799.563         0.160
  11                          84.917         0.017
  12                          84.948         0.017
  13                         338.182         0.068
  14                          40.757         0.008
  15                         759.067         0.152
  16                         799.705         0.160
  9                          830.621         0.166
  17                         153.647         0.031
  18                          31.183         0.006
  

  Analysis begun on:  Wed Jan 02 04:52:36 2019
  Analysis ended on:  Wed Jan 02 04:52:36 2019
  Total elapsed time: < 1 sec