
  EPA STORM WATER MANAGEMENT MODEL - VERSION 5.1 (Build 5.1.012)
  --------------------------------------------------------------

  There is always the time honored option of adding 
  code to Extran to help it better simulate 
  the hydraulic structure of interest.... 
  
  WARNING 04: minimum elevation drop used for Conduit 5
  WARNING 05: minimum slope used for Conduit 5
  WARNING 04: minimum elevation drop used for Conduit REFERENCELINK
  WARNING 05: minimum slope used for Conduit REFERENCELINK
  
  *********************************************************
  NOTE: The summary statistics displayed in this report are
  based on results found at every computational time step,  
  not just on results from each reporting time step.
  *********************************************************
  
  ****************
  Analysis Options
  ****************
  Flow Units ............... CFS
  Process Models:
    Rainfall/Runoff ........ NO
    RDII ................... NO
    Snowmelt ............... NO
    Groundwater ............ NO
    Flow Routing ........... YES
    Ponding Allowed ........ NO
    Water Quality .......... NO
  Flow Routing Method ...... DYNWAVE
  Starting Date ............ 07/22/2009 00:00:00
  Ending Date .............. 07/22/2009 08:00:00
  Antecedent Dry Days ...... 0.0
  Report Time Step ......... 00:01:00
  Routing Time Step ........ 2.00 sec
  Variable Time Step ....... YES
  Maximum Trials ........... 8
  Number of Threads ........ 1
  Head Tolerance ........... 0.005000 ft
  
  
  *********************
  Control Actions Taken
  *********************

  
  **************************        Volume        Volume
  Flow Routing Continuity        acre-feet      10^6 gal
  **************************     ---------     ---------
  Dry Weather Inflow .......         0.000         0.000
  Wet Weather Inflow .......         0.000         0.000
  Groundwater Inflow .......         0.000         0.000
  RDII Inflow ..............         0.000         0.000
  External Inflow ..........         2.609         0.850
  External Outflow .........         2.603         0.848
  Flooding Loss ............         0.000         0.000
  Evaporation Loss .........         0.000         0.000
  Exfiltration Loss ........         0.000         0.000
  Initial Stored Volume ....         0.000         0.000
  Final Stored Volume ......         0.007         0.002
  Continuity Error (%) .....        -0.029
  
  
  ***************************
  Time-Step Critical Elements
  ***************************
  None
  
  
  ********************************
  Highest Flow Instability Indexes
  ********************************
  Link LEAPORIFICE (7)
  Link 4 (6)
  Link REFERENCELINK (6)
  
  
  *************************
  Routing Time Step Summary
  *************************
  Minimum Time Step           :     0.50 sec
  Average Time Step           :     2.00 sec
  Maximum Time Step           :     2.00 sec
  Percent in Steady State     :    -0.00
  Average Iterations per Step :     2.14
  Percent Not Converging      :     1.48
  
  
  ******************
  Node Depth Summary
  ******************
  
  ---------------------------------------------------------------------------------
                                 Average  Maximum  Maximum  Time of Max    Reported
                                   Depth    Depth      HGL   Occurrence   Max Depth
  Node                 Type         Feet     Feet     Feet  days hr:min        Feet
  ---------------------------------------------------------------------------------
  bend                 JUNCTION     0.18     0.95   100.95     0  01:31        0.90
  berm                 JUNCTION     0.60     1.80   101.80     0  02:00        1.80
  INFLOW               JUNCTION     1.21     2.51   102.51     0  02:00        2.51
  5                    OUTFALL      0.18     0.88    98.88     0  01:31        0.86
  6                    OUTFALL      0.31     0.97   100.97     0  02:00        0.97
  LEAPNODE             STORAGE      1.15     2.24   102.24     0  02:00        2.24
  
  
  *******************
  Node Inflow Summary
  *******************
  
  -------------------------------------------------------------------------------------------------
                                  Maximum  Maximum                  Lateral       Total        Flow
                                  Lateral    Total  Time of Max      Inflow      Inflow     Balance
                                   Inflow   Inflow   Occurrence      Volume      Volume       Error
  Node                 Type           CFS      CFS  days hr:min    10^6 gal    10^6 gal     Percent
  -------------------------------------------------------------------------------------------------
  bend                 JUNCTION      0.00     9.85     0  01:31           0       0.226      -0.952
  berm                 JUNCTION      0.00    13.97     0  02:00           0        0.62       0.007
  INFLOW               JUNCTION     15.00    15.00     0  02:00        0.85        0.85       0.080
  5                    OUTFALL       0.00     8.59     0  01:31           0       0.228       0.000
  6                    OUTFALL       0.00    13.97     0  02:00           0        0.62       0.000
  LEAPNODE             STORAGE       0.00    15.00     0  02:00           0        0.85       0.327
  
  
  **********************
  Node Surcharge Summary
  **********************
  
  Surcharging occurs when water rises above the top of the highest conduit.
  ---------------------------------------------------------------------
                                               Max. Height   Min. Depth
                                   Hours       Above Crown    Below Rim
  Node                 Type      Surcharged           Feet         Feet
  ---------------------------------------------------------------------
  INFLOW               JUNCTION        0.92          0.505        1.495
  
  
  *********************
  Node Flooding Summary
  *********************
  
  No nodes were flooded.
  
  
  **********************
  Storage Volume Summary
  **********************
  
  --------------------------------------------------------------------------------------------------
                         Average     Avg  Evap Exfil       Maximum     Max    Time of Max    Maximum
                          Volume    Pcnt  Pcnt  Pcnt        Volume    Pcnt     Occurrence    Outflow
  Storage Unit          1000 ft3    Full  Loss  Loss      1000 ft3    Full    days hr:min        CFS
  --------------------------------------------------------------------------------------------------
  LEAPNODE                 0.115      29     0     0         0.224      56       0  02:00      14.97
  
  
  ***********************
  Outfall Loading Summary
  ***********************
  
  -----------------------------------------------------------
                         Flow       Avg       Max       Total
                         Freq      Flow      Flow      Volume
  Outfall Node           Pcnt       CFS       CFS    10^6 gal
  -----------------------------------------------------------
  5                     87.30      1.21      8.59       0.228
  6                     80.93      3.58     13.97       0.620
  -----------------------------------------------------------
  System                84.11      4.79     14.97       0.848
  
  
  ********************
  Link Flow Summary
  ********************
  
  -----------------------------------------------------------------------------
                                 Maximum  Time of Max   Maximum    Max/    Max/
                                  |Flow|   Occurrence   |Veloc|    Full    Full
  Link                 Type          CFS  days hr:min    ft/sec    Flow   Depth
  -----------------------------------------------------------------------------
  4                    CONDUIT      8.59     0  01:31      9.66    0.38    0.45
  5                    CONDUIT     13.97     0  02:00      6.02    0.47    0.69
  REFERENCELINK        CONDUIT     15.00     0  02:00      4.77    0.51    1.00
  LEAPWEIR             WEIR        13.97     0  02:00                      0.62
  LEAPORIFICE          DUMMY        9.85     0  01:31
  
  
  ***************************
  Flow Classification Summary
  ***************************
  
  -------------------------------------------------------------------------------------
                      Adjusted    ---------- Fraction of Time in Flow Class ---------- 
                       /Actual         Up    Down  Sub   Sup   Up    Down  Norm  Inlet 
  Conduit               Length    Dry  Dry   Dry   Crit  Crit  Crit  Crit  Ltd   Ctrl  
  -------------------------------------------------------------------------------------
  4                       1.00   0.13  0.00  0.00  0.00  0.87  0.00  0.00  0.01  0.00
  5                       1.00   0.19  0.00  0.00  0.81  0.00  0.00  0.00  0.00  0.00
  REFERENCELINK           1.00   0.12  0.00  0.00  0.86  0.01  0.00  0.00  0.00  0.00
  
  
  *************************
  Conduit Surcharge Summary
  *************************
  
  ----------------------------------------------------------------------------
                                                           Hours        Hours 
                         --------- Hours Full --------   Above Full   Capacity
  Conduit                Both Ends  Upstream  Dnstream   Normal Flow   Limited
  ----------------------------------------------------------------------------
  REFERENCELINK               0.62      0.92      0.62      0.01         0.01
  

  Analysis begun on:  Wed Jan 02 04:52:37 2019
  Analysis ended on:  Wed Jan 02 04:52:37 2019
  Total elapsed time: < 1 sec