
  EPA STORM WATER MANAGEMENT MODEL - VERSION 5.1 (Build 5.1.012)
  --------------------------------------------------------------

  Scenario Run :  EXPORTEDLID 
  
  WARNING 04: minimum elevation drop used for Conduit 1
  WARNING 04: minimum elevation drop used for Conduit 2
  WARNING 04: minimum elevation drop used for Conduit 3
  WARNING 04: minimum elevation drop used for Conduit 5
  WARNING 04: minimum elevation drop used for Conduit 7
  
  *********************************************************
  NOTE: The summary statistics displayed in this report are
  based on results found at every computational time step,  
  not just on results from each reporting time step.
  *********************************************************
  
  ****************
  Analysis Options
  ****************
  Flow Units ............... CFS
  Process Models:
    Rainfall/Runoff ........ YES
    RDII ................... NO
    Snowmelt ............... NO
    Groundwater ............ NO
    Flow Routing ........... YES
    Ponding Allowed ........ NO
    Water Quality .......... YES
  Infiltration Method ...... GREEN_AMPT
  Flow Routing Method ...... DYNWAVE
  Starting Date ............ 01/01/2002 00:00:00
  Ending Date .............. 01/01/2002 08:00:00
  Antecedent Dry Days ...... 5.0
  Report Time Step ......... 00:05:00
  Wet Time Step ............ 00:01:00
  Dry Time Step ............ 01:00:00
  Routing Time Step ........ 30.00 sec
  Variable Time Step ....... YES
  Maximum Trials ........... 8
  Number of Threads ........ 1
  Head Tolerance ........... 0.000100 ft
  
  
  **************************        Volume         Depth
  Runoff Quantity Continuity     acre-feet        inches
  **************************     ---------       -------
  Initial LID Storage ......         1.570         0.025
  Total Precipitation ......       178.916         2.899
  Evaporation Loss .........         1.344         0.022
  Infiltration Loss ........       146.316         2.371
  Surface Runoff ...........        10.236         0.166
  Final Storage ............        21.346         0.346
  Continuity Error (%) .....         0.689
  
  
  **************************           TSS            TP
  Runoff Quality Continuity            lbs           lbs
  **************************    ----------    ----------
  Initial Buildup ..........         0.000         0.000
  Surface Buildup ..........       828.263        33.131
  Wet Deposition ...........      2431.000        48.620
  Sweeping Removal .........         0.000         0.000
  Infiltration Loss ........      1890.529        39.089
  BMP Removal ..............       862.273        25.048
  Surface Runoff ...........       228.847         6.971
  Remaining Buildup ........        70.736         1.464
  Continuity Error (%) .....         6.347        11.228
  
  
  **************************        Volume        Volume
  Flow Routing Continuity        acre-feet      10^6 gal
  **************************     ---------     ---------
  Dry Weather Inflow .......         0.907         0.296
  Wet Weather Inflow .......        10.226         3.332
  Groundwater Inflow .......         0.000         0.000
  RDII Inflow ..............         0.000         0.000
  External Inflow ..........         0.000         0.000
  External Outflow .........        10.792         3.517
  Flooding Loss ............         0.000         0.000
  Evaporation Loss .........         0.000         0.000
  Exfiltration Loss ........         0.007         0.002
  Initial Stored Volume ....         0.000         0.000
  Final Stored Volume ......         0.051         0.017
  Continuity Error (%) .....         2.539
  
  
  **************************           TSS            TP
  Quality Routing Continuity           lbs           lbs
  **************************    ----------    ----------
  Dry Weather Inflow .......         0.000         0.000
  Wet Weather Inflow .......       228.530         6.961
  Groundwater Inflow .......         0.000         0.000
  RDII Inflow ..............         0.000         0.000
  External Inflow ..........         0.000         0.000
  External Outflow .........       225.492         6.899
  Flooding Loss ............         0.000         0.000
  Exfiltration Loss ........         0.105         0.003
  Mass Reacted .............         0.000         0.000
  Initial Stored Mass ......         0.000         0.000
  Final Stored Mass ........         0.359         0.010
  Continuity Error (%) .....         1.127         0.704
  
  
  *************************
  Highest Continuity Errors
  *************************
  Node D (3.37%)
  
  
  ***************************
  Time-Step Critical Elements
  ***************************
  Link 1 (44.65%)
  
  
  ********************************
  Highest Flow Instability Indexes
  ********************************
  Link 5 (18)
  Link 2 (6)
  Link 1 (5)
  Link 7 (4)
  Link 3 (2)
  
  
  *************************
  Routing Time Step Summary
  *************************
  Minimum Time Step           :    19.93 sec
  Average Time Step           :    27.53 sec
  Maximum Time Step           :    30.00 sec
  Percent in Steady State     :     0.00
  Average Iterations per Step :     2.77
  Percent Not Converging      :     3.73
  
  
  ***************************
  Subcatchment Runoff Summary
  ***************************
  
  --------------------------------------------------------------------------------------------------------
                            Total      Total      Total      Total      Total       Total     Peak  Runoff
                           Precip      Runon       Evap      Infil     Runoff      Runoff   Runoff   Coeff
  Subcatchment                 in         in         in         in         in    10^6 gal      CFS
  --------------------------------------------------------------------------------------------------------
  1                          2.90       0.00       0.02       1.90       0.34        0.75    13.33   0.118
  10                         2.90       0.00       0.03       2.03       0.42        0.49     8.53   0.144
  2                          2.90       0.70       0.02       2.35       0.63        0.68     8.60   0.177
  3                          2.90       0.00       0.02       2.67       0.21        0.24     6.87   0.073
  4                          2.90       0.00       0.02       2.37       0.31        0.32    10.10   0.108
  5                          2.90       0.18       0.02       2.54       0.26        0.35     7.56   0.084
  6                          2.90       0.29       0.02       2.45       0.29        0.70    10.64   0.092
  7                          2.90       0.00       0.02       2.42       0.13        0.76    14.24   0.046
  8                          2.90       0.25       0.02       2.49       0.42        1.28    21.27   0.132
  9                          2.90       0.46       0.02       2.42       0.64        0.69    11.04   0.192
  

  ***********************
  LID Performance Summary
  ***********************

  --------------------------------------------------------------------------------------------------------------------
                                         Total      Evap     Infil   Surface    Drain    Initial     Final  Continuity
                                        Inflow      Loss      Loss   Outflow   Outflow   Storage   Storage       Error
  Subcatchment      LID Control             in        in        in        in        in        in        in           %
  --------------------------------------------------------------------------------------------------------------------
  1                 GREENROOF             9.43      0.02      0.00      4.21      0.76      1.20      5.64        0.03
  1                 TRENCH               45.33      0.02      3.71     13.03     13.21      0.00      9.56       12.81
  10                TRENCH               46.41      0.02      3.70     13.93     12.99      0.00      9.64       13.22
  10                GREENROOF_2         220.47      0.03      0.00    214.48      2.14      0.90      4.73       -0.00
  2                 TRENCH                5.82      0.00      3.51      0.00      0.00      0.00      2.31       -0.07
  2                 GREENROOF_4           7.76      0.01      0.00      2.98      0.44      1.50      5.82        0.03
  4                 TRENCH                5.64      0.00      3.56      0.00      0.00      0.00      2.08       -0.06
  4                 GREENROOF_6           3.55      0.01      0.00      1.06      2.18      0.10      0.41       -0.01
  5                 GREENROOF_9           3.83      0.00      0.00      0.68      0.20      1.50      4.45        0.04
  5                 TRENCH                8.94      0.00      3.66      0.00      2.73      0.00      2.56       -0.01
  6                 GREENROOF_11         30.63      0.03      0.00     25.76      2.81      0.50      2.53       -0.00
  6                 TRENCH                7.69      0.00      3.58      0.00      1.58      0.00      2.53       -0.02
  7                 GREENROOF_13         11.07      0.02      0.00      7.00      2.68      0.30      1.66       -0.00
  7                 TRENCH               39.21      0.02      3.67      9.14     12.27      0.00      9.58       11.53
  8                 GREENROOF_15         14.43      0.03      0.00      9.21      2.13      0.70      3.77       -0.00
  8                 TRENCH                7.88      0.00      3.61      0.00      1.77      0.00      2.50       -0.02
  9                 TRENCH                9.38      0.00      3.65      0.00      3.16      0.00      2.57       -0.01
  9                 GREENROOF_16          6.65      0.02      0.00      2.50      2.21      0.50      2.43       -0.02
  
  ****************************
  Subcatchment Washoff Summary
  ****************************
  
  ------------------------------------------------
                                 TSS            TP
  Subcatchment                   lbs           lbs
  ------------------------------------------------
  1                           47.351         1.378
  10                          32.556         0.971
  2                           44.801         1.334
  3                           16.003         0.480
  4                           19.110         0.537
  5                           21.914         0.637
  6                           44.473         1.302
  7                           48.589         1.424
  8                           97.373         3.115
  9                           45.977         1.379
  ------------------------------------------------
  System                     418.147        12.558
  
  
  ******************
  Node Depth Summary
  ******************
  
  ---------------------------------------------------------------------------------
                                 Average  Maximum  Maximum  Time of Max    Reported
                                   Depth    Depth      HGL   Occurrence   Max Depth
  Node                 Type         Feet     Feet     Feet  days hr:min        Feet
  ---------------------------------------------------------------------------------
  A                    JUNCTION     1.90     3.40   253.10     0  04:15        3.40
  B                    JUNCTION     1.91     3.42   253.12     0  04:16        3.42
  C                    JUNCTION     1.92     3.42   253.12     0  04:15        3.42
  E                    JUNCTION     0.20     0.44   313.07     0  04:06        0.44
  F                    JUNCTION     1.92     3.42   253.13     0  04:15        3.42
  G                    JUNCTION     0.22     0.50   330.68     0  03:31        0.49
  OUTFALL              OUTFALL      1.16     2.37   252.07     0  04:15        2.37
  BMPSTORE             STORAGE      0.00     0.00     0.00     0  00:00        0.00
  D                    STORAGE      1.92     3.42   253.13     0  04:16        3.42
  
  
  *******************
  Node Inflow Summary
  *******************
  
  -------------------------------------------------------------------------------------------------
                                  Maximum  Maximum                  Lateral       Total        Flow
                                  Lateral    Total  Time of Max      Inflow      Inflow     Balance
                                   Inflow   Inflow   Occurrence      Volume      Volume       Error
  Node                 Type           CFS      CFS  days hr:min    10^6 gal    10^6 gal     Percent
  -------------------------------------------------------------------------------------------------
  A                    JUNCTION     21.27    53.65     0  04:14        1.28        3.54       0.246
  B                    JUNCTION      0.00    33.54     0  04:20           0        2.26       0.314
  C                    JUNCTION      0.00    33.47     0  04:19           0        2.26       0.380
  E                    JUNCTION     18.20    18.20     0  04:05        1.19        1.19       0.052
  F                    JUNCTION      0.00     1.45     0  03:31           0      0.0172      27.254
  G                    JUNCTION     21.01    21.01     0  03:30        1.16        1.16      -0.038
  OUTFALL              OUTFALL       0.00    53.62     0  04:15           0        3.52       0.000
  BMPSTORE             STORAGE       0.00     0.00     0  00:00           0           0       0.000 gal
  D                    STORAGE       0.00    35.52     0  03:40           0        2.36       3.487
  
  
  **********************
  Node Surcharge Summary
  **********************
  
  No nodes were surcharged.
  
  
  *********************
  Node Flooding Summary
  *********************
  
  No nodes were flooded.
  
  
  **********************
  Storage Volume Summary
  **********************
  
  --------------------------------------------------------------------------------------------------
                         Average     Avg  Evap Exfil       Maximum     Max    Time of Max    Maximum
                          Volume    Pcnt  Pcnt  Pcnt        Volume    Pcnt     Occurrence    Outflow
  Storage Unit          1000 ft3    Full  Loss  Loss      1000 ft3    Full    days hr:min        CFS
  --------------------------------------------------------------------------------------------------
  BMPSTORE                 0.000       0     0     0         0.000       0       0  00:00       0.00
  D                        0.192      38     0     0         0.342      68       0  04:16      33.47
  
  
  ***********************
  Outfall Loading Summary
  ***********************
  
  ---------------------------------------------------------------------------------------
                         Flow       Avg       Max       Total         Total         Total
                         Freq      Flow      Flow      Volume           TSS            TP
  Outfall Node           Pcnt       CFS       CFS    10^6 gal           lbs           lbs
  ---------------------------------------------------------------------------------------
  OUTFALL               97.51     18.83     53.62       3.516       225.531         6.900
  ---------------------------------------------------------------------------------------
  System                97.51     18.83     53.62       3.516       225.531         6.900
  
  
  ********************
  Link Flow Summary
  ********************
  
  -----------------------------------------------------------------------------
                                 Maximum  Time of Max   Maximum    Max/    Max/
                                  |Flow|   Occurrence   |Veloc|    Full    Full
  Link                 Type          CFS  days hr:min    ft/sec    Flow   Depth
  -----------------------------------------------------------------------------
  1                    CONDUIT     33.61     0  04:21      2.25    1.66    0.68
  2                    CONDUIT     33.54     0  04:20      2.23    0.71    0.68
  3                    CONDUIT     53.62     0  04:15      4.78    7.34    0.58
  4                    CONDUIT     18.19     0  04:06     11.12    0.01    0.39
  5                    CONDUIT      1.45     0  03:31      1.13    0.10    0.68
  6                    CONDUIT     20.37     0  03:31     10.73    0.01    0.39
  7                    CONDUIT     33.47     0  04:19      5.11    0.34    0.68
  
  
  ***************************
  Flow Classification Summary
  ***************************
  
  -------------------------------------------------------------------------------------
                      Adjusted    ---------- Fraction of Time in Flow Class ---------- 
                       /Actual         Up    Down  Sub   Sup   Up    Down  Norm  Inlet 
  Conduit               Length    Dry  Dry   Dry   Crit  Crit  Crit  Crit  Ltd   Ctrl  
  -------------------------------------------------------------------------------------
  1                       5.64   0.00  0.00  0.00  1.00  0.00  0.00  0.00  0.00  0.00
  2                      33.52   0.00  0.00  0.00  1.00  0.00  0.00  0.00  0.01  0.00
  3                       1.00   0.01  0.00  0.00  0.99  0.00  0.00  0.00  0.00  0.00
  4                      22.36   0.00  0.00  0.00  0.94  0.06  0.00  0.00  0.99  0.00
  5                       2.98   0.00  0.00  0.00  1.00  0.00  0.00  0.00  0.00  0.00
  6                      13.34   0.00  0.00  0.00  0.92  0.08  0.00  0.00  0.99  0.00
  7                     166.41   0.00  0.00  0.00  0.99  0.01  0.00  0.00  0.01  0.00
  
  
  *************************
  Conduit Surcharge Summary
  *************************
  
  ----------------------------------------------------------------------------
                                                           Hours        Hours 
                         --------- Hours Full --------   Above Full   Capacity
  Conduit                Both Ends  Upstream  Dnstream   Normal Flow   Limited
  ----------------------------------------------------------------------------
  1                           0.01      0.01      0.01      1.89         0.01
  3                           0.01      0.01      0.01      3.62         0.01
  
  
  ***************************
  Link Pollutant Load Summary
  ***************************
  
  ------------------------------------------------
                                 TSS            TP
  Link                           lbs           lbs
  ------------------------------------------------
  1                          129.846         3.836
  2                          129.206         3.815
  3                          225.531         6.900
  4                           66.387         1.940
  5                            1.339         0.038
  6                           65.239         1.921
  7                          128.925         3.804
  

  Analysis begun on:  Wed Jan 02 08:33:00 2019
  Analysis ended on:  Wed Jan 02 08:33:00 2019
  Total elapsed time: < 1 sec