
  EPA STORM WATER MANAGEMENT MODEL - VERSION 5.1 (Build 5.1.012)
  --------------------------------------------------------------

  ÷≤ŒÔ‘∞ 
  
  
  *********************************************************
  NOTE: The summary statistics displayed in this report are
  based on results found at every computational time step,  
  not just on results from each reporting time step.
  *********************************************************
  
  ****************
  Analysis Options
  ****************
  Flow Units ............... CMS
  Process Models:
    Rainfall/Runoff ........ YES
    RDII ................... NO
    Snowmelt ............... NO
    Groundwater ............ NO
    Flow Routing ........... NO
    Water Quality .......... NO
  Infiltration Method ...... GREEN_AMPT
  Starting Date ............ 08/26/2013 00:00:00
  Ending Date .............. 08/26/2013 05:00:00
  Antecedent Dry Days ...... 35.0
  Report Time Step ......... 00:05:00
  Wet Time Step ............ 00:05:00
  Dry Time Step ............ 01:00:00
  
  
  **************************        Volume         Depth
  Runoff Quantity Continuity     hectare-m            mm
  **************************     ---------       -------
  Initial LID Storage ......         0.000         0.017
  Total Precipitation ......         0.172        52.216
  Evaporation Loss .........         0.000         0.000
  Infiltration Loss ........         0.003         0.822
  Surface Runoff ...........         1.299       394.482
  Final Storage ............         0.062        18.936
  Continuity Error (%) .....      -693.056
  
  
  **************************        Volume        Volume
  Flow Routing Continuity        hectare-m      10^6 ltr
  **************************     ---------     ---------
  Dry Weather Inflow .......         0.000         0.000
  Wet Weather Inflow .......         1.299        12.995
  Groundwater Inflow .......         0.000         0.000
  RDII Inflow ..............         0.000         0.000
  External Inflow ..........         0.000         0.000
  External Outflow .........         1.299        12.995
  Flooding Loss ............         0.000         0.000
  Evaporation Loss .........         0.000         0.000
  Exfiltration Loss ........         0.000         0.000
  Initial Stored Volume ....         0.000         0.000
  Final Stored Volume ......         0.000         0.000
  Continuity Error (%) .....         0.000
  
  
  ***************************
  Subcatchment Runoff Summary
  ***************************
  
  --------------------------------------------------------------------------------------------------------
                            Total      Total      Total      Total      Total       Total     Peak  Runoff
                           Precip      Runon       Evap      Infil     Runoff      Runoff   Runoff   Coeff
  Subcatchment                 mm         mm         mm         mm         mm    10^6 ltr      CMS
  --------------------------------------------------------------------------------------------------------
  S1                        52.22       0.00       0.00       0.00       0.00        0.00     0.00   0.000
  S2                        52.22       0.00       0.00       0.00      48.09        0.44     0.11   0.921
  S3                        52.22       0.00       0.00       0.00      47.33        0.43     0.11   0.906
  S4                        52.22       0.00       0.00       0.78      45.11        0.04     0.02   0.864
  S5                        52.22       0.00       0.00       3.90      39.32        0.20     0.03   0.753
  Swale1                    52.22    4164.93       0.00       3.82   23942.80        2.51     1.05   5.677
  Swale2                    52.22    4098.85       0.00       4.16   23809.99        2.50     1.05   5.736
  Swale3                    52.22   77304.09       0.00       6.79  109039.12       10.90     2.09   1.410
  Swale4                    52.22   27958.75       0.00       7.28   33319.53       12.99     2.13   1.190
  Swale5                    52.22   21687.50       0.00       6.77   32452.64        7.69     1.64   1.493
  Bio1                      52.22   20888.89       0.00       2.06   20589.44        4.94     2.11   0.983
  

  ***********************
  LID Performance Summary
  ***********************

  --------------------------------------------------------------------------------------------------------------------
                                         Total      Evap     Infil   Surface    Drain    Initial     Final  Continuity
                                        Inflow      Loss      Loss   Outflow   Outflow   Storage   Storage       Error
  Subcatchment      LID Control             mm        mm        mm        mm        mm        mm        mm           %
  --------------------------------------------------------------------------------------------------------------------
  S1                Barrel               52.22      0.00      0.00      0.00      0.00      0.00     52.22        0.00
  Swale1            Swale              4217.15      0.00      3.82  23942.81      0.00      0.00      3.29     -467.92
  Swale2            Swale              4151.06      0.00      4.16  23810.00      0.00      0.00      3.30     -473.77
  Swale3            Swale             77356.30      0.00      6.79 109039.16      0.00      0.00      0.00      -40.97
  Swale4            Swale             28010.96      0.00      7.28  33319.55      0.00      0.00      0.00      -18.98
  Swale5            Swale             21739.71      0.00      6.77  32452.65      0.00      0.00      9.07      -49.35
  Bio1              bio               20941.11      0.00      2.06  20589.44      0.00      2.40    352.00       -0.00

  Analysis begun on:  Wed Jan 02 04:52:37 2019
  Analysis ended on:  Wed Jan 02 04:52:37 2019
  Total elapsed time: < 1 sec