
  EPA STORM WATER MANAGEMENT MODEL - VERSION 5.1 (Build 5.1.012)
  --------------------------------------------------------------

  
  *************
  Element Count
  *************
  Number of rain gages ...... 0
  Number of subcatchments ... 0
  Number of nodes ........... 61
  Number of links ........... 58
  Number of pollutants ...... 0
  Number of land uses ....... 0
  
  
  ************
  Node Summary
  ************
                                           Invert      Max.    Ponded    External
  Name                 Type                 Elev.     Depth      Area    Inflow  
  -------------------------------------------------------------------------------
  10309                JUNCTION            101.60      9.40       0.0
  10309a               JUNCTION            101.60      9.40       0.0
  10309b               JUNCTION            101.60      9.40       0.0
  10309c               JUNCTION            101.60      9.40       0.0
  10309d               JUNCTION            101.60      9.40       0.0
  10309e               JUNCTION            101.60      9.40       0.0
  15009                JUNCTION            111.50     13.50       0.0
  15009a               JUNCTION            111.50     13.50       0.0
  15009b               JUNCTION            111.50     13.50       0.0
  15009c               JUNCTION            111.50     13.50       0.0
  15009d               JUNCTION            111.50     13.50       0.0
  15009e               JUNCTION            121.00     13.50       0.0
  16009                JUNCTION            102.00     18.00       0.0
  16009a               JUNCTION            102.00     18.00       0.0
  16009b               JUNCTION            102.00     18.00       0.0
  16009c               JUNCTION            102.00     18.00       0.0
  16009d               JUNCTION            102.00     18.00       0.0
  16009e               JUNCTION            102.00     18.00       0.0
  16109                JUNCTION            102.80     22.20       0.0    Yes
  16109a               JUNCTION            102.80     22.20       0.0
  16109b               JUNCTION            102.80     22.20       0.0
  16109c               JUNCTION            102.80     22.20       0.0
  16109d               JUNCTION            102.80     22.20       0.0
  16109e               JUNCTION            102.80     22.20       0.0
  80408                JUNCTION            120.00     13.40       0.0    Yes
  80408a               JUNCTION            124.60     13.40       0.0    Yes
  80408b               JUNCTION            124.60     13.40       0.0    Yes
  80408c               JUNCTION            124.60     13.40       0.0    Yes
  80408d               JUNCTION            124.60     13.40       0.0    Yes
  80408e               JUNCTION            124.60     13.40       0.0    Yes
  80608                JUNCTION            118.30     16.70       0.0
  80608a               JUNCTION            118.30     16.70       0.0
  80608b               JUNCTION            118.30     16.70       0.0
  80608c               JUNCTION            118.30     16.70       0.0
  80608d               JUNCTION            118.30     16.70       0.0
  80608e               JUNCTION            118.30     16.70       0.0
  81009                JUNCTION            128.20      8.80       0.0    Yes
  81009a               JUNCTION            128.20      8.80       0.0    Yes
  81009b               JUNCTION            128.20      8.80       0.0    Yes
  81009c               JUNCTION            128.20      8.80       0.0    Yes
  81009d               JUNCTION            128.20      8.80       0.0    Yes
  81009e               JUNCTION            128.20      8.80       0.0    Yes
  81309                JUNCTION            117.50     12.50       0.0
  81309a               JUNCTION            117.50     12.50       0.0
  81309b               JUNCTION            117.50     12.50       0.0
  81309c               JUNCTION            117.50     12.50       0.0
  81309d               JUNCTION            117.50     12.50       0.0
  81309e               JUNCTION            117.50     12.50       0.0
  82308d               JUNCTION            112.30     42.70       0.0
  82309                JUNCTION            112.30     42.70       0.0    Yes
  82309a               JUNCTION            112.30     42.70       0.0    Yes
  82309b               JUNCTION            112.30     42.70       0.0    Yes
  82309c               JUNCTION            112.30     42.70       0.0    Yes
  WetWell              JUNCTION            112.30     21.00       0.0    Yes
  10208                OUTFALL              89.90      9.00       0.0
  10208b               OUTFALL              89.90      9.00       0.0
  10208c               OUTFALL              89.90      9.00       0.0
  10208d               OUTFALL              89.90      9.00       0.0
  10208e               OUTFALL              89.90      9.00       0.0
  10208a               OUTFALL              89.90      9.00       0.0
  82309d               STORAGE             112.30     42.70       0.0    Yes
  
  
  ************
  Link Summary
  ************
  Name             From Node        To Node          Type            Length    %Slope Roughness
  ---------------------------------------------------------------------------------------------
  1030e            10309e           10208e           CONDUIT         4500.0    0.2600    0.0160
  1030             10309            10208            CONDUIT         4500.0    0.2600    0.2000
  1030a            10309a           10208a           CONDUIT         4500.0    0.2600    0.0160
  1030b            10309b           10208b           CONDUIT         4500.0    0.2600    0.0160
  1030c            10309c           10208c           CONDUIT         4500.0    0.2600    0.0160
  1030d            10309d           10208d           CONDUIT         4500.0    0.2600    0.0160
  1570             15009            16009            CONDUIT         5000.0    0.1900    0.0154
  1570a            15009a           16009a           CONDUIT         5000.0    0.1900    0.0154
  1570b            15009b           16009b           CONDUIT         5000.0    0.1900    0.0154
  1570c            15009c           16009c           CONDUIT          100.0    9.5432    0.0154
  1570d            15009d           16009d           CONDUIT         5000.0    0.1900    0.0154
  1570e            15009e           16009e           CONDUIT         5000.0    0.3800    0.0154
  1600             16009            16109            CONDUIT          500.0   -0.1600    0.0150
  1600a            16009a           16109a           CONDUIT          500.0   -0.1600    0.0150
  1600b            16009b           16109b           CONDUIT          500.0   -0.1600    0.0150
  1600c            16009c           16109c           CONDUIT          500.0   -0.1600    0.0150
  1600d            16009d           16109d           CONDUIT          500.0   -0.1600    0.0150
  1600e            16009e           16109e           CONDUIT          500.0   -0.1600    0.0150
  1602             82309            16109            CONDUIT         5000.0    0.1900    0.0340
  1602a            82309a           16109a           CONDUIT         5000.0    0.1900    0.0340
  1602b            82309b           16109b           CONDUIT         5000.0    0.1900    0.0340
  1602c            82309c           16109c           CONDUIT         5000.0    0.1900    0.0340
  1602d            82309d           16109d           CONDUIT         5000.0    0.1900    0.0340
  1602e            WetWell          16109e           CONDUIT         5000.0    0.1900    0.0340
  1630             16009            10309            CONDUIT          300.0    0.1333    0.0150
  1630a            16009a           10309a           CONDUIT          300.0    0.1333    0.0150
  1630b            16009b           10309b           CONDUIT          300.0    0.1333    0.0150
  1630c            16009c           10309c           CONDUIT          300.0    0.1333    0.0150
  1630d            16009d           10309d           CONDUIT          300.0    0.1333    0.0150
  1630e            16009e           10309e           CONDUIT          300.0    0.1333    0.0150
  8040             80408            80608            CONDUIT         1800.0    0.0944    0.0150
  8040a            80408a           80608a           CONDUIT         1800.0    0.3500    0.0150
  8040b            80408b           80608b           CONDUIT         1800.0    0.3500    0.0150
  8040c            80408c           80608c           CONDUIT         1800.0    0.3500    0.0150
  8040d            80408d           80608d           CONDUIT         1800.0    0.3500    0.0150
  8040e            80408e           80608e           CONDUIT         1800.0    0.3500    0.0150
  8060             80608            82309            CONDUIT         2075.0    0.1831    0.0150
  8060a            80608a           82309a           CONDUIT         2075.0    0.1831    0.0150
  8060b            80608b           82309b           CONDUIT         2075.0    0.1831    0.0150
  8060c            80608c           82309c           CONDUIT         2075.0    0.1831    0.0150
  8060d            80608d           82309d           CONDUIT         2075.0    0.1831    0.0150
  8060e            80608e           WetWell          CONDUIT         2075.0    0.1831    0.0150
  8100             81009            81309            CONDUIT         5100.0    0.2098    0.0150
  8100a            81009a           81309a           CONDUIT         5100.0    0.2098    0.0150
  8100b            81009b           81309b           CONDUIT         5100.0    0.2098    0.0150
  8100c            81009c           81309c           CONDUIT         5100.0    0.2098    0.0150
  8100d            81009d           81309d           CONDUIT         5100.0    0.2098    0.0150
  8100e            81009e           81309e           CONDUIT         5100.0    0.2098    0.0150
  8130             81309            15009            CONDUIT         3500.0    0.1714    0.0150
  8130a            81309a           15009a           CONDUIT         3500.0    0.1714    0.0150
  8130b            81309b           15009b           CONDUIT         3500.0    0.1714    0.0150
  8130c            81309c           15009c           CONDUIT         3500.0    0.1714    0.0150
  8130d            81309d           15009d           CONDUIT         3500.0    0.1714    0.0150
  8130e            81309e           15009e           CONDUIT         3500.0   -0.1000    0.0150
  Pump1            WetWell          15009e           TYPE3 PUMP  
  OR1@82309d-82308d 82309d           82308d           ORIFICE     
  OR1@82309b-15009b 82309b           15009b           ORIFICE     
  WEIR1@82309c-15009c 82309c           15009c           WEIR        
  
  
  *********************
  Cross Section Summary
  *********************
                                        Full     Full     Hyd.     Max.   No. of     Full
  Conduit          Shape               Depth     Area     Rad.    Width  Barrels     Flow
  ---------------------------------------------------------------------------------------
  1030e            TRIANGULAR           9.00   243.00     4.27    54.00        1  3028.41
  1030             TRIANGULAR           9.00   243.00     4.27    54.00        1   242.27
  1030a            TRIANGULAR           9.00   243.00     4.27    54.00        1  3028.41
  1030b            TRIANGULAR           9.00   243.00     4.27    54.00        1  3028.41
  1030c            TRIANGULAR           9.00   243.00     4.27    54.00        1  3028.41
  1030d            TRIANGULAR           9.00   243.00     4.27    54.00        1  3028.41
  1570             CIRCULAR             5.50    23.76     1.38     5.50        1   123.56
  1570a            CIRCULAR             5.50    23.76     1.38     5.50        1   123.56
  1570b            CIRCULAR             5.50    23.76     1.38     5.50        1   123.56
  1570c            CIRCULAR             5.50    23.76     1.38     5.50        1   875.71
  1570d            CIRCULAR             5.50    23.76     1.38     5.50        1   123.56
  1570e            CIRCULAR             5.50    23.76     1.38     5.50        1   174.75
  1600             CIRCULAR             6.00    28.27     1.50     6.00        1   146.82
  1600a            CIRCULAR             6.00    28.27     1.50     6.00        1   146.82
  1600b            CIRCULAR             6.00    28.27     1.50     6.00        1   146.82
  1600c            CIRCULAR             6.00    28.27     1.50     6.00        1   146.82
  1600d            CIRCULAR             6.00    28.27     1.50     6.00        1   146.82
  1600e            CIRCULAR             6.00    28.27     1.50     6.00        1   146.82
  1602             CIRCULAR             5.00    19.63     1.25     5.00        1    43.41
  1602a            CIRCULAR             5.00    19.63     1.25     5.00        1    43.41
  1602b            CIRCULAR             5.00    19.63     1.25     5.00        1    43.41
  1602c            CIRCULAR             5.00    19.63     1.25     5.00        1    43.41
  1602d            CIRCULAR             5.00    19.63     1.25     5.00        1    43.41
  1602e            CIRCULAR             5.00    19.63     1.25     5.00        1    43.41
  1630             TRIANGULAR           9.00   243.00     4.27    54.00        1  2313.27
  1630a            TRIANGULAR           9.00   243.00     4.27    54.00        1  2313.27
  1630b            TRIANGULAR           9.00   243.00     4.27    54.00        1  2313.27
  1630c            TRIANGULAR           9.00   243.00     4.27    54.00        1  2313.27
  1630d            TRIANGULAR           9.00   243.00     4.27    54.00        1  2313.27
  1630e            TRIANGULAR           9.00   243.00     4.27    54.00        1  2313.27
  8040             FORCE_MAIN           4.00    12.57     1.00     4.00        1    46.98
  8040a            CIRCULAR             4.00    12.57     1.00     4.00        1    73.65
  8040b            CIRCULAR             4.00    12.57     1.00     4.00        1    73.65
  8040c            CIRCULAR             4.00    12.57     1.00     4.00        1    73.65
  8040d            CIRCULAR             4.00    12.57     1.00     4.00        1    73.65
  8040e            CIRCULAR             4.00    12.57     1.00     4.00        1    73.65
  8060             CIRCULAR             4.00    12.57     1.00     4.00        1    53.27
  8060a            CIRCULAR             4.00    12.57     1.00     4.00        1    53.27
  8060b            CIRCULAR             4.00    12.57     1.00     4.00        1    53.27
  8060c            CIRCULAR             4.00    12.57     1.00     4.00        1    53.27
  8060d            CIRCULAR             4.00    12.57     1.00     4.00        1    53.27
  8060e            CIRCULAR             4.00    12.57     1.00     4.00        1    53.27
  8100             CIRCULAR             4.50    15.90     1.13     4.50        1    78.06
  8100a            CIRCULAR             4.50    15.90     1.13     4.50        1    78.06
  8100b            CIRCULAR             4.50    15.90     1.13     4.50        1    78.06
  8100c            CIRCULAR             4.50    15.90     1.13     4.50        1    78.06
  8100d            CIRCULAR             4.50    15.90     1.13     4.50        1    78.06
  8100e            CIRCULAR             4.50    15.90     1.13     4.50        1    78.06
  8130             CIRCULAR             4.50    15.90     1.13     4.50        1    70.56
  8130a            CIRCULAR             4.50    15.90     1.13     4.50        1    70.56
  8130b            CIRCULAR             4.50    15.90     1.13     4.50        1    70.56
  8130c            CIRCULAR             4.50    15.90     1.13     4.50        1    70.56
  8130d            CIRCULAR             4.50    15.90     1.13     4.50        1    70.56
  8130e            CIRCULAR             4.50    15.90     1.13     4.50        1    53.89
  
  
  
  *********************************************************
  NOTE: The summary statistics displayed in this report are
  based on results found at every computational time step,  
  not just on results from each reporting time step.
  *********************************************************
  
  ****************
  Analysis Options
  ****************
  Flow Units ............... CFS
  Process Models:
    Rainfall/Runoff ........ NO
    RDII ................... NO
    Snowmelt ............... NO
    Groundwater ............ NO
    Flow Routing ........... YES
    Ponding Allowed ........ YES
    Water Quality .......... NO
  Flow Routing Method ...... DYNWAVE
  Starting Date ............ 01/01/1988 00:00:00
  Ending Date .............. 01/01/1988 06:00:00
  Antecedent Dry Days ...... 0.0
  Report Time Step ......... 00:05:00
  Routing Time Step ........ 10.00 sec
  Variable Time Step ....... YES
  Maximum Trials ........... 8
  Number of Threads ........ 1
  Head Tolerance ........... 0.005000 ft
  
  
  *********************
  Control Actions Taken
  *********************

  
  **************************        Volume        Volume
  Flow Routing Continuity        acre-feet      10^6 gal
  **************************     ---------     ---------
  Dry Weather Inflow .......        19.834         6.463
  Wet Weather Inflow .......         0.000         0.000
  Groundwater Inflow .......         0.000         0.000
  RDII Inflow ..............         0.000         0.000
  External Inflow ..........       192.947        62.875
  External Outflow .........       179.934        58.634
  Flooding Loss ............        16.452         5.361
  Evaporation Loss .........         0.116         0.038
  Exfiltration Loss ........         0.000         0.000
  Initial Stored Volume ....         1.569         0.511
  Final Stored Volume ......        20.398         6.647
  Continuity Error (%) .....        -1.190
  
  
  *************************
  Highest Continuity Errors
  *************************
  Node 10309 (20.45%)
  Node 81309e (11.22%)
  Node 16009 (6.64%)
  Node 80608 (3.95%)
  Node 80608a (2.83%)
  
  
  ***************************
  Time-Step Critical Elements
  ***************************
  Link 1600 (3.12%)
  
  
  ********************************
  Highest Flow Instability Indexes
  ********************************
  Link OR1@82309d-82308d (111)
  Link 8040b (27)
  Link 8060b (26)
  Link OR1@82309b-15009b (22)
  Link 8040d (19)
  
  
  *************************
  Routing Time Step Summary
  *************************
  Minimum Time Step           :     1.71 sec
  Average Time Step           :     9.90 sec
  Maximum Time Step           :    10.00 sec
  Percent in Steady State     :     0.00
  Average Iterations per Step :     4.63
  Percent Not Converging      :    17.74
  
  
  ******************
  Node Depth Summary
  ******************
  
  ---------------------------------------------------------------------------------
                                 Average  Maximum  Maximum  Time of Max    Reported
                                   Depth    Depth      HGL   Occurrence   Max Depth
  Node                 Type         Feet     Feet     Feet  days hr:min        Feet
  ---------------------------------------------------------------------------------
  10309                JUNCTION     6.68     9.40   111.00     0  03:06        9.40
  10309a               JUNCTION     1.92     2.70   104.30     0  01:51        2.70
  10309b               JUNCTION     1.84     2.86   104.46     0  01:46        2.86
  10309c               JUNCTION     1.83     2.86   104.46     0  03:00        2.86
  10309d               JUNCTION     1.91     2.75   104.35     0  03:06        2.75
  10309e               JUNCTION     1.62     2.57   104.17     0  03:03        2.57
  15009                JUNCTION     1.45     2.45   113.95     0  01:35        2.45
  15009a               JUNCTION     1.44     2.45   113.95     0  01:35        2.45
  15009b               JUNCTION     1.78     2.98   114.48     0  01:26        2.98
  15009c               JUNCTION     0.74     1.27   112.77     0  03:00        1.27
  15009d               JUNCTION     1.44     2.45   113.95     0  01:35        2.45
  15009e               JUNCTION     1.10     2.04   123.04     0  03:00        2.04
  16009                JUNCTION     6.37     9.04   111.04     0  03:07        9.00
  16009a               JUNCTION     2.16     2.94   104.94     0  01:42        2.94
  16009b               JUNCTION     1.96     3.05   105.05     0  01:38        3.05
  16009c               JUNCTION     1.93     3.05   105.05     0  03:00        3.05
  16009d               JUNCTION     2.04     2.94   104.94     0  03:03        2.94
  16009e               JUNCTION     1.73     2.74   104.74     0  03:01        2.74
  16109                JUNCTION     5.81     8.37   111.17     0  03:07        8.27
  16109a               JUNCTION     2.17     2.96   105.76     0  01:50        2.96
  16109b               JUNCTION     1.63     2.85   105.65     0  01:42        2.85
  16109c               JUNCTION     1.41     2.40   105.20     0  03:00        2.40
  16109d               JUNCTION     1.98     2.96   105.76     0  03:02        2.96
  16109e               JUNCTION     1.48     2.47   105.27     0  03:00        2.47
  80408                JUNCTION     7.29    13.40   133.40     0  00:26       13.40
  80408a               JUNCTION     6.86    13.40   138.00     0  00:27       13.40
  80408b               JUNCTION     3.85    13.40   138.00     0  00:48       10.41
  80408c               JUNCTION     1.19     2.35   126.95     0  00:18        2.34
  80408d               JUNCTION     4.33    12.75   137.35     0  02:12       12.75
  80408e               JUNCTION     0.57     1.13   125.73     0  00:19        1.12
  80608                JUNCTION     7.61    16.70   135.00     0  00:26       14.57
  80608a               JUNCTION     8.61    16.70   135.00     0  00:26       16.70
  80608b               JUNCTION     5.64    16.70   135.00     0  00:48       14.35
  80608c               JUNCTION     1.74     3.14   121.44     0  03:00        3.14
  80608d               JUNCTION     6.68    16.70   135.00     0  02:12       16.70
  80608e               JUNCTION     0.97     2.38   120.68     0  03:00        2.38
  81009                JUNCTION     1.46     2.84   131.04     0  00:31        2.84
  81009a               JUNCTION     1.46     2.84   131.04     0  00:31        2.84
  81009b               JUNCTION     1.46     2.85   131.05     0  00:32        2.84
  81009c               JUNCTION     1.46     2.85   131.05     0  00:31        2.84
  81009d               JUNCTION     1.46     2.84   131.04     0  00:31        2.84
  81009e               JUNCTION     1.69     3.16   131.36     0  01:24        3.16
  81309                JUNCTION     1.71     3.10   120.60     0  01:00        3.10
  81309a               JUNCTION     1.71     3.10   120.60     0  01:00        3.10
  81309b               JUNCTION     1.62     2.89   120.39     0  00:53        2.89
  81309c               JUNCTION     1.93     3.40   120.90     0  03:00        3.40
  81309d               JUNCTION     1.71     3.10   120.60     0  01:01        3.10
  81309e               JUNCTION     6.26    12.50   130.00     0  00:39       12.50
  82308d               JUNCTION     9.82    22.14   134.44     0  02:54       21.51
  82309                JUNCTION    10.55    32.08   144.38     0  00:26       19.86
  82309a               JUNCTION    11.58    30.84   143.14     0  00:26       21.85
  82309b               JUNCTION     7.53    18.95   131.25     0  00:48       17.64
  82309c               JUNCTION     2.21     3.75   116.05     0  01:22        3.75
  WetWell              JUNCTION     3.96     8.28   120.58     0  01:20        8.23
  10208                OUTFALL      1.58     2.20    92.10     0  03:09        2.20
  10208b               OUTFALL      1.65     2.63    92.53     0  01:46        2.63
  10208c               OUTFALL      1.64     2.63    92.53     0  03:00        2.63
  10208d               OUTFALL      1.71     2.52    92.42     0  03:05        2.52
  10208e               OUTFALL      1.43     2.34    92.24     0  03:03        2.34
  10208a               OUTFALL      4.50     4.50    94.40     0  00:00        4.50
  82309d               STORAGE      9.81    21.31   133.61     0  03:00       21.31
  
  
  *******************
  Node Inflow Summary
  *******************
  
  -------------------------------------------------------------------------------------------------
                                  Maximum  Maximum                  Lateral       Total        Flow
                                  Lateral    Total  Time of Max      Inflow      Inflow     Balance
                                   Inflow   Inflow   Occurrence      Volume      Volume       Error
  Node                 Type           CFS      CFS  days hr:min    10^6 gal    10^6 gal     Percent
  -------------------------------------------------------------------------------------------------
  10309                JUNCTION      0.00   119.77     0  03:07           0          10      25.708
  10309a               JUNCTION      0.00   122.39     0  01:41           0        11.2       2.238
  10309b               JUNCTION      0.00   135.16     0  01:35           0        10.9       0.226
  10309c               JUNCTION      0.00   135.00     0  03:00           0        10.9       0.171
  10309d               JUNCTION      0.00   121.91     0  03:03           0        10.6       0.365
  10309e               JUNCTION      0.00   100.66     0  03:01           0        7.67       0.337
  15009                JUNCTION      0.00    51.03     0  01:14           0        4.04       0.296
  15009a               JUNCTION      0.00    51.03     0  01:13           0        4.04       0.421
  15009b               JUNCTION      0.00    72.40     0  01:01           0        5.74       0.105
  15009c               JUNCTION      0.00   102.78     0  03:00           0        8.25      -0.029
  15009d               JUNCTION      0.00    50.99     0  01:13           0        4.04       0.275
  15009e               JUNCTION      0.00    51.29     0  01:20           0        3.68       0.537
  16009                JUNCTION      0.00   119.49     0  01:47           0        10.7       7.115
  16009a               JUNCTION      0.00   122.42     0  01:37           0        11.3       1.049
  16009b               JUNCTION      0.00   135.19     0  01:30           0        10.9       0.339
  16009c               JUNCTION      0.00   135.00     0  03:00           0        10.9       0.003
  16009d               JUNCTION      0.00   121.92     0  03:02           0        10.6       0.487
  16009e               JUNCTION      0.00   100.69     0  03:00           0         7.7       0.344
  16109                JUNCTION      0.00    73.87     0  01:15           0        7.12       0.000
  16109a               JUNCTION      0.00    71.98     0  01:50           0        7.37       0.000
  16109b               JUNCTION      0.00    64.71     0  01:36           0        5.17       0.000
  16109c               JUNCTION      0.00    32.21     0  03:00           0        2.67       0.000
  16109d               JUNCTION      0.00    71.94     0  03:00           0        6.61       0.000
  16109e               JUNCTION      0.00    49.55     0  03:00           0        4.06       0.000
  80408                JUNCTION     66.00    66.00     0  00:15        7.03        7.03       0.631
  80408a               JUNCTION     65.00    65.00     0  00:15        6.87        6.87       0.303
  80408b               JUNCTION     45.00    45.00     0  00:15        3.64        3.64      -0.200
  80408c               JUNCTION     45.00    45.00     0  00:15        3.64        3.64      -0.194
  80408d               JUNCTION     45.00    45.00     0  00:15        3.64        3.64      -0.192
  80408e               JUNCTION     11.25    11.25     0  00:15       0.909       0.909      -0.434
  80608                JUNCTION      0.00    66.18     0  00:20           0        4.26       4.118
  80608a               JUNCTION      0.00    66.46     0  00:19           0        5.85       2.909
  80608b               JUNCTION      0.00    46.50     0  00:22           0        3.64       1.753
  80608c               JUNCTION      0.00    46.50     0  00:22           0        3.64       0.274
  80608d               JUNCTION      0.00    46.50     0  00:22           0        3.64       1.772
  80608e               JUNCTION      0.00    11.73     0  00:21           0       0.913       1.257
  81009                JUNCTION     50.00    50.00     0  00:15        4.04        4.04      -0.487
  81009a               JUNCTION     50.00    50.00     0  00:15        4.04        4.04      -0.487
  81009b               JUNCTION     50.00    50.00     0  00:15        4.04        4.04      -0.492
  81009c               JUNCTION     50.00    50.00     0  00:15        4.04        4.04      -0.518
  81009d               JUNCTION     50.00    50.00     0  00:15        4.04        4.04      -0.487
  81009e               JUNCTION     50.00    50.00     0  00:15        4.04        4.04      -0.536
  81309                JUNCTION      0.00    53.75     0  00:40           0        4.06       0.410
  81309a               JUNCTION      0.00    53.75     0  00:40           0        4.06       0.410
  81309b               JUNCTION      0.00    53.42     0  00:42           0        4.06       0.563
  81309c               JUNCTION      0.00    53.85     0  00:39           0        4.06       0.929
  81309d               JUNCTION      0.00    53.76     0  00:40           0        4.06       0.413
  81309e               JUNCTION      0.00    53.55     0  00:30           0        4.06      12.638
  82308d               JUNCTION      0.00    16.84     0  04:46           0      0.0052       0.000
  82309                JUNCTION     40.00   100.01     0  00:25        3.23        7.31       2.694
  82309a               JUNCTION     40.00    99.15     0  00:25        3.23        7.55       2.522
  82309b               JUNCTION     40.00    85.59     0  00:49        3.23        6.81      -0.956
  82309c               JUNCTION     40.00    85.00     0  03:00        3.23        6.86      -0.138
  WetWell              JUNCTION     40.00    51.25     0  01:19        3.23        4.13      -0.235
  10208                OUTFALL       0.00    86.82     0  03:09           0         7.9       0.000
  10208b               OUTFALL       0.00   135.07     0  01:46           0        10.8       0.000
  10208c               OUTFALL       0.00   134.95     0  03:00           0        10.8       0.000
  10208d               OUTFALL       0.00   121.82     0  03:05           0        10.5       0.000
  10208e               OUTFALL       0.00   100.58     0  03:03           0        7.64       0.000
  10208a               OUTFALL       0.00   122.25     0  01:51           0        10.9       0.000
  82309d               STORAGE      40.00    85.95     0  00:49        3.23         6.6      -0.160
  
  
  **********************
  Node Surcharge Summary
  **********************
  
  Surcharging occurs when water rises above the top of the highest conduit.
  ---------------------------------------------------------------------
                                               Max. Height   Min. Depth
                                   Hours       Above Crown    Below Rim
  Node                 Type      Surcharged           Feet         Feet
  ---------------------------------------------------------------------
  10309                JUNCTION        0.59          0.400        0.000
  16009                JUNCTION        0.06          0.041        8.959
  16109                JUNCTION        3.64          2.371       13.829
  80408                JUNCTION        2.96          9.400        0.000
  80408a               JUNCTION        2.70          9.400        0.000
  80408b               JUNCTION        2.24          9.400        0.000
  80408d               JUNCTION        2.17          8.754        0.646
  80608                JUNCTION        2.79         12.700        0.000
  80608a               JUNCTION        2.80         12.700        0.000
  80608b               JUNCTION        2.44         12.700        0.000
  80608d               JUNCTION        2.91         12.700        0.000
  81309e               JUNCTION        2.93          8.000        0.000
  82308d               JUNCTION        4.53         20.138       20.562
  82309                JUNCTION        3.00         25.877       10.623
  82309a               JUNCTION        2.92         24.641       11.859
  82309b               JUNCTION        2.60         12.754       23.746
  WetWell              JUNCTION        1.84          2.082       12.718
  
  
  *********************
  Node Flooding Summary
  *********************
  
  Flooding refers to all water that overflows a node, whether it ponds or not.
  --------------------------------------------------------------------------
                                                             Total   Maximum
                                 Maximum   Time of Max       Flood    Ponded
                        Hours       Rate    Occurrence      Volume     Depth
  Node                 Flooded       CFS   days hr:min    10^6 gal      Feet
  --------------------------------------------------------------------------
  10309                   0.17     32.73      0  03:07       0.049     0.000
  80408                   2.70     47.35      0  00:28       2.726     0.000
  80408a                  2.63     45.75      0  00:27       1.000     0.000
  80408b                  0.01      6.11      0  00:48       0.001     0.000
  80608                   0.02     40.90      0  00:26       0.011     0.000
  80608a                  2.66     38.84      0  00:26       1.357     0.000
  80608b                  0.01      1.77      0  00:48       0.000     0.000
  80608d                  0.86     12.71      0  03:00       0.207     0.000
  81309e                  0.02     40.68      0  00:39       0.011     0.000
  
  
  **********************
  Storage Volume Summary
  **********************
  
  --------------------------------------------------------------------------------------------------
                         Average     Avg  Evap Exfil       Maximum     Max    Time of Max    Maximum
                          Volume    Pcnt  Pcnt  Pcnt        Volume    Pcnt     Occurrence    Outflow
  Storage Unit          1000 ft3    Full  Loss  Loss      1000 ft3    Full    days hr:min        CFS
  --------------------------------------------------------------------------------------------------
  82309d                   7.844      23     0     0        17.046      50       0  03:00      71.95
  
  
  ***********************
  Outfall Loading Summary
  ***********************
  
  -----------------------------------------------------------
                         Flow       Avg       Max       Total
                         Freq      Flow      Flow      Volume
  Outfall Node           Pcnt       CFS       CFS    10^6 gal
  -----------------------------------------------------------
  10208                 92.39     52.86     86.82       7.901
  10208b                93.35     71.62    135.07      10.821
  10208c                96.20     69.67    134.95      10.848
  10208d                92.44     70.23    121.82      10.513
  10208e                92.30     51.17    100.58       7.640
  10208a                91.80     73.46    122.25      10.906
  -----------------------------------------------------------
  System                93.08    389.00    700.28      58.630
  
  
  ********************
  Link Flow Summary
  ********************
  
  -----------------------------------------------------------------------------
                                 Maximum  Time of Max   Maximum    Max/    Max/
                                  |Flow|   Occurrence   |Veloc|    Full    Full
  Link                 Type          CFS  days hr:min    ft/sec    Flow   Depth
  -----------------------------------------------------------------------------
  1030e                CONDUIT    100.58     0  03:03      5.57    0.03    0.27
  1030                 CONDUIT     86.82     0  03:09      0.92    0.36    0.62
  1030a                CONDUIT    122.25     0  01:51      3.14    0.04    0.40
  1030b                CONDUIT    135.07     0  01:46      5.98    0.04    0.30
  1030c                CONDUIT    134.95     0  03:00      5.98    0.04    0.30
  1030d                CONDUIT    121.82     0  03:05      5.83    0.04    0.29
  1570                 CONDUIT     50.48     0  01:35      3.26    0.41    0.72
  1570a                CONDUIT     50.47     0  01:35      4.36    0.41    0.49
  1570b                CONDUIT     70.54     0  01:25      5.29    0.57    0.55
  1570c                CONDUIT    102.78     0  03:00     11.85    0.12    0.39
  1570d                CONDUIT     50.45     0  01:35      4.48    0.41    0.49
  1570e                CONDUIT     51.18     0  03:00      5.19    0.29    0.43
  1600                 CONDUIT     69.13     0  01:47      5.98    0.47    1.00
  1600a                CONDUIT     71.99     0  01:59      5.98    0.49    0.49
  1600b                CONDUIT     64.71     0  01:50      4.69    0.44    0.49
  1600c                CONDUIT     32.35     0  03:06      2.68    0.22    0.45
  1600d                CONDUIT     71.92     0  03:02      5.20    0.49    0.49
  1600e                CONDUIT     49.51     0  03:00      4.72    0.34    0.43
  1602                 CONDUIT     73.87     0  01:15      4.29    1.70    1.00
  1602a                CONDUIT     71.98     0  01:50      4.33    1.66    0.80
  1602b                CONDUIT     64.71     0  01:36      4.06    1.49    0.79
  1602c                CONDUIT     32.21     0  03:00      2.54    0.74    0.62
  1602d                CONDUIT     71.94     0  03:00      4.29    1.66    0.80
  1602e                CONDUIT     49.55     0  03:00      3.15    1.14    0.75
  1630                 CONDUIT    119.77     0  03:07      5.36    0.05    1.00
  1630a                CONDUIT    122.39     0  01:41      7.46    0.05    0.31
  1630b                CONDUIT    135.16     0  01:35      5.74    0.06    0.33
  1630c                CONDUIT    135.00     0  03:00      5.61    0.06    0.33
  1630d                CONDUIT    121.91     0  03:03      5.49    0.05    0.32
  1630e                CONDUIT    100.66     0  03:01      5.14    0.04    0.29
  8040                 CONDUIT     66.18     0  00:20      6.31    1.41    1.00
  8040a                CONDUIT     66.46     0  00:19      7.64    0.90    1.00
  8040b                CONDUIT     46.50     0  00:22      7.11    0.63    1.00
  8040c                CONDUIT     46.50     0  00:22      7.11    0.63    0.68
  8040d                CONDUIT     46.50     0  00:22      7.11    0.63    1.00
  8040e                CONDUIT     11.73     0  00:21      5.28    0.16    0.43
  8060                 CONDUIT     60.01     0  00:25      5.26    1.13    1.00
  8060a                CONDUIT     59.15     0  00:25      5.26    1.11    1.00
  8060b                CONDUIT     46.79     0  03:11      4.86    0.88    1.00
  8060c                CONDUIT     45.00     0  03:00      5.27    0.84    0.64
  8060d                CONDUIT     45.95     0  00:49      4.79    0.86    1.00
  8060e                CONDUIT     24.69     0  03:07      2.79    0.46    0.80
  8100                 CONDUIT     53.75     0  00:40      6.47    0.69    0.64
  8100a                CONDUIT     53.75     0  00:40      6.47    0.69    0.64
  8100b                CONDUIT     53.42     0  00:42      6.55    0.68    0.61
  8100c                CONDUIT     53.85     0  00:39      6.52    0.69    0.67
  8100d                CONDUIT     53.76     0  00:40      6.47    0.69    0.64
  8100e                CONDUIT     53.52     0  00:30      6.41    0.69    0.85
  8130                 CONDUIT     51.03     0  01:14      5.62    0.72    0.61
  8130a                CONDUIT     51.03     0  01:13      5.63    0.72    0.61
  8130b                CONDUIT     51.89     0  01:01      4.90    0.74    0.64
  8130c                CONDUIT     50.00     0  03:00      6.06    0.71    0.52
  8130d                CONDUIT     50.99     0  01:13      5.54    0.72    0.61
  8130e                CONDUIT     50.03     0  01:43      4.45    0.93    0.73
  Pump1                PUMP         1.31     0  01:20              0.26
  OR1@82309d-82308d    ORIFICE     16.84     0  04:46                      1.00
  OR1@82309b-15009b    ORIFICE     22.29     0  00:48                          
  WEIR1@82309c-15009c  WEIR        52.81     0  01:22                      0.51
  
  
  ***************************
  Flow Classification Summary
  ***************************
  
  -------------------------------------------------------------------------------------
                      Adjusted    ---------- Fraction of Time in Flow Class ---------- 
                       /Actual         Up    Down  Sub   Sup   Up    Down  Norm  Inlet 
  Conduit               Length    Dry  Dry   Dry   Crit  Crit  Crit  Crit  Ltd   Ctrl  
  -------------------------------------------------------------------------------------
  1030e                   1.00   0.04  0.00  0.00  0.96  0.00  0.00  0.00  0.00  0.00
  1030                    1.00   0.04  0.00  0.00  0.96  0.00  0.00  0.00  0.00  0.00
  1030a                   1.00   0.00  0.06  0.00  0.94  0.00  0.00  0.00  0.94  0.00
  1030b                   1.00   0.03  0.00  0.00  0.97  0.00  0.00  0.00  0.00  0.00
  1030c                   1.00   0.02  0.00  0.00  0.98  0.00  0.00  0.00  0.00  0.00
  1030d                   1.00   0.04  0.00  0.00  0.96  0.00  0.00  0.00  0.00  0.00
  1570                    1.00   0.00  0.00  0.00  0.99  0.00  0.00  0.00  0.95  0.00
  1570a                   1.00   0.00  0.00  0.00  0.99  0.00  0.00  0.00  0.95  0.00
  1570b                   1.00   0.00  0.00  0.00  0.97  0.03  0.00  0.00  0.89  0.00
  1570c                   5.02   0.00  0.00  0.00  0.42  0.58  0.00  0.00  0.99  0.00
  1570d                   1.00   0.01  0.00  0.00  0.99  0.00  0.00  0.00  0.93  0.00
  1570e                   1.00   0.00  0.02  0.00  0.97  0.00  0.00  0.00  0.97  0.00
  1600                    1.00   0.00  0.00  0.00  0.97  0.03  0.00  0.00  0.00  0.00
  1600a                   1.00   0.00  0.00  0.00  0.97  0.03  0.00  0.00  0.34  0.00
  1600b                   1.00   0.00  0.00  0.00  1.00  0.00  0.00  0.00  0.29  0.00
  1600c                   1.00   0.00  0.00  0.00  1.00  0.00  0.00  0.00  0.39  0.00
  1600d                   1.00   0.00  0.00  0.00  0.97  0.03  0.00  0.00  0.30  0.00
  1600e                   1.00   0.00  0.00  0.00  0.97  0.03  0.00  0.00  0.41  0.00
  1602                    1.00   0.00  0.00  0.00  1.00  0.00  0.00  0.00  0.33  0.00
  1602a                   1.00   0.00  0.00  0.00  1.00  0.00  0.00  0.00  0.00  0.00
  1602b                   1.00   0.00  0.00  0.00  1.00  0.00  0.00  0.00  0.34  0.00
  1602c                   1.00   0.00  0.00  0.00  1.00  0.00  0.00  0.00  0.03  0.00
  1602d                   1.00   0.00  0.00  0.00  1.00  0.00  0.00  0.00  0.00  0.00
  1602e                   1.00   0.00  0.00  0.00  1.00  0.00  0.00  0.00  0.00  0.00
  1630                    1.00   0.00  0.00  0.00  0.96  0.03  0.00  0.00  0.00  0.00
  1630a                   1.00   0.00  0.00  0.00  0.93  0.07  0.00  0.00  0.00  0.00
  1630b                   1.00   0.00  0.00  0.00  0.95  0.05  0.00  0.00  0.26  0.00
  1630c                   1.00   0.00  0.00  0.00  0.96  0.04  0.00  0.00  0.32  0.00
  1630d                   1.00   0.01  0.00  0.00  0.95  0.05  0.00  0.00  0.17  0.00
  1630e                   1.00   0.00  0.00  0.00  0.94  0.05  0.00  0.00  0.29  0.00
  8040                    1.00   0.00  0.00  0.00  0.99  0.01  0.00  0.00  0.00  0.00
  8040a                   1.00   0.00  0.00  0.00  0.97  0.03  0.00  0.00  0.48  0.00
  8040b                   1.00   0.00  0.00  0.00  0.96  0.04  0.00  0.00  0.54  0.00
  8040c                   1.00   0.00  0.00  0.00  0.96  0.04  0.00  0.00  0.94  0.00
  8040d                   1.00   0.00  0.00  0.00  0.96  0.04  0.00  0.00  0.49  0.00
  8040e                   1.00   0.00  0.00  0.00  0.95  0.05  0.00  0.00  0.93  0.00
  8060                    1.00   0.00  0.00  0.00  0.60  0.00  0.00  0.40  0.07  0.00
  8060a                   1.00   0.00  0.00  0.00  0.61  0.00  0.00  0.39  0.08  0.00
  8060b                   1.00   0.00  0.00  0.00  0.54  0.00  0.00  0.46  0.09  0.00
  8060c                   1.00   0.00  0.00  0.00  0.00  0.00  0.00  1.00  0.00  0.00
  8060d                   1.00   0.00  0.00  0.00  0.70  0.00  0.00  0.30  0.12  0.00
  8060e                   1.00   0.00  0.00  0.00  0.57  0.00  0.00  0.43  0.25  0.00
  8100                    1.00   0.00  0.00  0.00  0.96  0.04  0.00  0.00  0.89  0.00
  8100a                   1.00   0.00  0.00  0.00  0.96  0.04  0.00  0.00  0.89  0.00
  8100b                   1.00   0.00  0.00  0.00  0.96  0.04  0.00  0.00  0.88  0.00
  8100c                   1.00   0.00  0.00  0.00  0.96  0.04  0.00  0.00  0.89  0.00
  8100d                   1.00   0.00  0.00  0.00  0.96  0.04  0.00  0.00  0.89  0.00
  8100e                   1.00   0.00  0.00  0.00  0.96  0.04  0.00  0.00  0.50  0.00
  8130                    1.00   0.00  0.00  0.00  0.96  0.04  0.00  0.00  0.45  0.00
  8130a                   1.00   0.00  0.00  0.00  0.96  0.04  0.00  0.00  0.45  0.00
  8130b                   1.00   0.00  0.00  0.00  1.00  0.00  0.00  0.00  0.87  0.00
  8130c                   1.00   0.00  0.00  0.00  0.88  0.12  0.00  0.00  0.00  0.00
  8130d                   1.00   0.00  0.00  0.00  0.96  0.04  0.00  0.00  0.45  0.00
  8130e                   1.00   0.00  0.03  0.00  0.97  0.00  0.00  0.00  0.07  0.00
  
  
  *************************
  Conduit Surcharge Summary
  *************************
  
  ----------------------------------------------------------------------------
                                                           Hours        Hours 
                         --------- Hours Full --------   Above Full   Capacity
  Conduit                Both Ends  Upstream  Dnstream   Normal Flow   Limited
  ----------------------------------------------------------------------------
  1030                        0.01      0.59      0.01      0.01         0.01
  1570                        0.01      0.01      4.60      0.01         0.01
  1600                        3.64      3.64      4.46      0.01         0.01
  1602                        2.21      3.28      4.54      2.78         1.75
  1602a                       0.01      3.19      0.01      3.12         0.01
  1602b                       0.01      2.85      0.01      2.74         0.01
  1602d                       0.01      3.68      0.01      3.53         0.01
  1602e                       0.01      2.54      0.01      2.32         0.01
  1630                        0.06      0.06      0.59      0.01         0.01
  8040                        2.75      2.96      2.79      0.24         0.01
  8040a                       2.70      2.70      2.80      0.01         0.01
  8040b                       2.24      2.24      2.44      0.01         0.01
  8040d                       2.17      2.17      2.91      0.01         0.01
  8060                        2.79      2.79      3.00      0.06         0.01
  8060a                       2.80      2.80      2.92      0.06         0.01
  8060b                       2.44      2.44      2.60      0.01         0.01
  8060d                       2.91      2.91      3.48      0.01         0.01
  8060e                       0.01      0.01      1.84      0.01         0.01
  8100e                       0.01      0.01      2.93      0.01         0.01
  8130e                       0.01      0.01      2.93      0.01         0.01
  
  
  ***************
  Pumping Summary
  ***************
  
  ---------------------------------------------------------------------------------------------------------
                                                  Min       Avg       Max     Total     Power    % Time Off
                        Percent   Number of      Flow      Flow      Flow    Volume     Usage    Pump Curve
  Pump                 Utilized   Start-Ups       CFS       CFS       CFS  10^6 gal     Kw-hr    Low   High
  ---------------------------------------------------------------------------------------------------------
  Pump1                   70.24           1      0.00      0.74      1.31     0.084      1.00    0.0    0.0
  

  Analysis begun on:  Wed Jan 02 04:52:37 2019
  Analysis ended on:  Wed Jan 02 04:52:37 2019
  Total elapsed time: < 1 sec