
  EPA STORM WATER MANAGEMENT MODEL - VERSION 5.1 (Build 5.1.012)
  --------------------------------------------------------------

  
  *********************************************************
  NOTE: The summary statistics displayed in this report are
  based on results found at every computational time step,  
  not just on results from each reporting time step.
  *********************************************************
  
  ****************
  Analysis Options
  ****************
  Flow Units ............... CFS
  Process Models:
    Rainfall/Runoff ........ NO
    RDII ................... NO
    Snowmelt ............... NO
    Groundwater ............ NO
    Flow Routing ........... YES
    Ponding Allowed ........ NO
    Water Quality .......... NO
  Flow Routing Method ...... DYNWAVE
  Starting Date ............ 01/01/2002 00:00:00
  Ending Date .............. 01/01/2002 00:00:00
  Antecedent Dry Days ...... 5.0
  Report Time Step ......... 00:05:00
  Routing Time Step ........ 300.00 sec
  Variable Time Step ....... YES
  Maximum Trials ........... 8
  Number of Threads ........ 1
  Head Tolerance ........... 0.005000 ft
  
  
  **************************        Volume        Volume
  Flow Routing Continuity        acre-feet      10^6 gal
  **************************     ---------     ---------
  Dry Weather Inflow .......         3.967         1.293
  Wet Weather Inflow .......         0.000         0.000
  Groundwater Inflow .......         0.000         0.000
  RDII Inflow ..............         0.000         0.000
  External Inflow ..........         0.000         0.000
  External Outflow .........         3.971         1.294
  Flooding Loss ............         0.152         0.050
  Evaporation Loss .........         0.000         0.000
  Exfiltration Loss ........         0.000         0.000
  Initial Stored Volume ....         0.002         0.001
  Final Stored Volume ......         0.037         0.012
  Continuity Error (%) .....        -4.819
  
  
  *************************
  Highest Continuity Errors
  *************************
  Node 12 (-7.22%)
  Node 18 (-5.91%)
  Node 10 (5.00%)
  Node 22 (2.86%)
  Node 20 (1.49%)
  
  
  ***************************
  Time-Step Critical Elements
  ***************************
  Link 19 (3.64%)
  Link 17 (1.58%)
  Link 21 (1.42%)
  
  
  ********************************
  Highest Flow Instability Indexes
  ********************************
  Link 17 (3)
  Link 19 (3)
  Link 11 (3)
  Link 25 (2)
  Link 23 (2)
  
  
  *************************
  Routing Time Step Summary
  *************************
  Minimum Time Step           :     1.17 sec
  Average Time Step           :   273.42 sec
  Maximum Time Step           :   300.00 sec
  Percent in Steady State     :     0.00
  Average Iterations per Step :     2.34
  Percent Not Converging      :     3.96
  
  
  ******************
  Node Depth Summary
  ******************
  
  ---------------------------------------------------------------------------------
                                 Average  Maximum  Maximum  Time of Max    Reported
                                   Depth    Depth      HGL   Occurrence   Max Depth
  Node                 Type         Feet     Feet     Feet  days hr:min        Feet
  ---------------------------------------------------------------------------------
  10                   JUNCTION     1.77     2.22     3.52     0  00:47        2.05
  12                   JUNCTION     1.92     3.10     4.20     0  00:53        2.10
  16                   JUNCTION     1.62     3.50     5.00     0  00:52        2.80
  18                   JUNCTION     1.69     2.60     4.00     0  00:40        2.01
  20                   JUNCTION     1.85     3.80     5.00     0  00:39        2.62
  22                   JUNCTION     2.03    10.00    11.00     0  00:39        4.61
  24                   JUNCTION     1.60     2.22     3.82     0  00:39        1.77
  36                   JUNCTION     1.52     1.95     3.75     0  00:24        1.91
  14                   OUTFALL      3.00     3.00     3.00     0  00:00        3.00
  
  
  *******************
  Node Inflow Summary
  *******************
  
  -------------------------------------------------------------------------------------------------
                                  Maximum  Maximum                  Lateral       Total        Flow
                                  Lateral    Total  Time of Max      Inflow      Inflow     Balance
                                   Inflow   Inflow   Occurrence      Volume      Volume       Error
  Node                 Type           CFS      CFS  days hr:min    10^6 gal    10^6 gal     Percent
  -------------------------------------------------------------------------------------------------
  10                   JUNCTION      0.00    34.10     0  00:47           0        1.43       5.260
  12                   JUNCTION      0.00     2.86     0  00:40           0         1.3      -6.732
  16                   JUNCTION      0.00    14.04     0  00:47           0        1.34      -0.442
  18                   JUNCTION      0.00    26.58     0  00:52           0        1.37      -5.582
  20                   JUNCTION      0.00    30.03     0  00:39           0        1.35       1.508
  22                   JUNCTION      0.00    42.34     0  00:39           0        1.38       2.947
  24                   JUNCTION      0.00     7.07     0  00:39           0        1.31       0.630
  36                   JUNCTION      0.50     0.92     0  00:23        1.29        1.29      -0.672
  14                   OUTFALL       0.00    18.37     0  00:39           0        1.33       0.000
  
  
  **********************
  Node Surcharge Summary
  **********************
  
  Surcharging occurs when water rises above the top of the highest conduit.
  ---------------------------------------------------------------------
                                               Max. Height   Min. Depth
                                   Hours       Above Crown    Below Rim
  Node                 Type      Surcharged           Feet         Feet
  ---------------------------------------------------------------------
  10                   JUNCTION       95.81          1.217        1.483
  12                   JUNCTION       95.92          2.100        7.800
  16                   JUNCTION       95.65          2.500        0.000
  18                   JUNCTION       95.59          1.600        0.000
  20                   JUNCTION       95.86          2.800        0.000
  22                   JUNCTION       95.97          9.000        0.000
  24                   JUNCTION       95.58          1.220        1.180
  36                   JUNCTION       95.54          0.949        1.251
  
  
  *********************
  Node Flooding Summary
  *********************
  
  Flooding refers to all water that overflows a node, whether it ponds or not.
  --------------------------------------------------------------------------
                                                             Total   Maximum
                                 Maximum   Time of Max       Flood    Ponded
                        Hours       Rate    Occurrence      Volume     Depth
  Node                 Flooded       CFS   days hr:min    10^6 gal      Feet
  --------------------------------------------------------------------------
  16                      0.08      7.45      0  00:52       0.017     0.000
  18                      0.01     15.39      0  00:52       0.001     0.000
  20                      0.17     15.37      0  00:39       0.050     0.000
  22                      0.08     12.59      0  00:39       0.028     0.000
  
  
  ***********************
  Outfall Loading Summary
  ***********************
  
  -----------------------------------------------------------
                         Flow       Avg       Max       Total
                         Freq      Flow      Flow      Volume
  Outfall Node           Pcnt       CFS       CFS    10^6 gal
  -----------------------------------------------------------
  14                   100.00      0.58     18.37       1.327
  -----------------------------------------------------------
  System               100.00      0.58     18.37       1.327
  
  
  ********************
  Link Flow Summary
  ********************
  
  -----------------------------------------------------------------------------
                                 Maximum  Time of Max   Maximum    Max/    Max/
                                  |Flow|   Occurrence   |Veloc|    Full    Full
  Link                 Type          CFS  days hr:min    ft/sec    Flow   Depth
  -----------------------------------------------------------------------------
  11                   CONDUIT     18.95     0  00:52     24.13   24.29    1.00
  13                   CONDUIT     42.34     0  00:39    >50.00   53.69    1.00
  17                   CONDUIT     13.37     0  00:47     17.02   14.76    1.00
  19                   CONDUIT     32.16     0  00:47    >50.00   30.93    1.00
  21                   CONDUIT     25.21     0  00:39     32.10   30.76    1.00
  23                   CONDUIT     18.37     0  00:39     23.38    7.46    1.00
  25                   CONDUIT      6.69     0  00:39      8.52   12.45    1.00
  43                   CONDUIT      7.07     0  00:39      9.00   10.05    1.00
  
  
  ***************************
  Flow Classification Summary
  ***************************
  
  -------------------------------------------------------------------------------------
                      Adjusted    ---------- Fraction of Time in Flow Class ---------- 
                       /Actual         Up    Down  Sub   Sup   Up    Down  Norm  Inlet 
  Conduit               Length    Dry  Dry   Dry   Crit  Crit  Crit  Crit  Ltd   Ctrl  
  -------------------------------------------------------------------------------------
  11                      1.00   0.01  0.00  0.00  0.99  0.00  0.00  0.00  0.00  0.00
  13                      1.00   0.00  0.00  0.00  1.00  0.00  0.00  0.00  0.00  0.00
  17                      1.00   0.01  0.00  0.00  0.99  0.00  0.00  0.00  0.00  0.00
  19                      1.00   0.01  0.00  0.00  0.98  0.01  0.00  0.00  0.00  0.00
  21                      1.00   0.00  0.00  0.00  0.99  0.00  0.00  0.00  0.00  0.00
  23                      1.00   0.00  0.00  0.00  1.00  0.00  0.00  0.00  0.00  0.00
  25                      1.00   0.00  0.00  0.00  1.00  0.00  0.00  0.00  0.00  0.00
  43                      1.00   0.00  0.00  0.00  1.00  0.00  0.00  0.00  0.00  0.00
  
  
  *************************
  Conduit Surcharge Summary
  *************************
  
  ----------------------------------------------------------------------------
                                                           Hours        Hours 
                         --------- Hours Full --------   Above Full   Capacity
  Conduit                Both Ends  Upstream  Dnstream   Normal Flow   Limited
  ----------------------------------------------------------------------------
  11                         95.81     95.81     95.85      0.46         0.09
  13                         95.92     95.92     95.96      0.43         0.09
  17                         95.47     95.65     95.56      0.59         0.24
  19                         95.55     95.56     95.81      0.49         0.14
  21                         95.85     95.85     95.92      0.40         0.17
  23                         95.96     95.96     96.00      0.09         0.17
  25                         95.57     95.57     95.65      0.50         0.13
  43                         95.54     95.54     95.57      0.34         0.02
  

  Analysis begun on:  Wed Jan 02 04:52:37 2019
  Analysis ended on:  Wed Jan 02 04:52:37 2019
  Total elapsed time: < 1 sec