
  EPA STORM WATER MANAGEMENT MODEL - VERSION 5.1 (Build 5.1.012)
  --------------------------------------------------------------

  
  ERROR 205: invalid keyword RULE_STEP at line 29 of [OPTION] section:
  RULE_STEP

  Analysis begun on:  Wed Jan 02 04:52:37 2019
  Analysis ended on:  Wed Jan 02 04:52:37 2019
  Total elapsed time: < 1 sec