
  EPA STORM WATER MANAGEMENT MODEL - VERSION 5.1 (Build 5.1.012)
  --------------------------------------------------------------

  
  *********************************************************
  NOTE: The summary statistics displayed in this report are
  based on results found at every computational time step,  
  not just on results from each reporting time step.
  *********************************************************
  
  ****************
  Analysis Options
  ****************
  Flow Units ............... GPM
  Process Models:
    Rainfall/Runoff ........ NO
    RDII ................... NO
    Snowmelt ............... NO
    Groundwater ............ NO
    Flow Routing ........... YES
    Ponding Allowed ........ NO
    Water Quality .......... NO
  Flow Routing Method ...... DYNWAVE
  Starting Date ............ 01/01/2002 00:00:00
  Ending Date .............. 01/01/2002 12:00:00
  Antecedent Dry Days ...... 5.0
  Report Time Step ......... 00:05:00
  Routing Time Step ........ 30.00 sec
  Variable Time Step ....... YES
  Maximum Trials ........... 8
  Number of Threads ........ 1
  Head Tolerance ........... 0.005000 ft
  
  
  **************************        Volume        Volume
  Flow Routing Continuity        acre-feet      10^6 gal
  **************************     ---------     ---------
  Dry Weather Inflow .......         0.594         0.194
  Wet Weather Inflow .......         0.000         0.000
  Groundwater Inflow .......         0.000         0.000
  RDII Inflow ..............         0.000         0.000
  External Inflow ..........         0.000         0.000
  External Outflow .........         0.288         0.094
  Flooding Loss ............         0.202         0.066
  Evaporation Loss .........         0.000         0.000
  Exfiltration Loss ........         0.000         0.000
  Initial Stored Volume ....         0.009         0.003
  Final Stored Volume ......         0.087         0.028
  Continuity Error (%) .....         4.288
  
  
  *************************
  Highest Continuity Errors
  *************************
  Node 28 (99.72%)
  Node 24 (98.38%)
  Node 30 (54.02%)
  Node 16 (22.62%)
  Node 34 (12.04%)
  
  
  ***************************
  Time-Step Critical Elements
  ***************************
  Link 0 (90.90%)
  Link 52 (7.89%)
  
  
  ********************************
  Highest Flow Instability Indexes
  ********************************
  Link 7 (86)
  Link 30 (74)
  Link 29 (33)
  Link 31 (18)
  Link 85 (7)
  
  
  *************************
  Routing Time Step Summary
  *************************
  Minimum Time Step           :     3.24 sec
  Average Time Step           :     5.04 sec
  Maximum Time Step           :    30.00 sec
  Percent in Steady State     :     0.00
  Average Iterations per Step :     6.28
  Percent Not Converging      :    53.58
  
  
  ******************
  Node Depth Summary
  ******************
  
  ---------------------------------------------------------------------------------
                                 Average  Maximum  Maximum  Time of Max    Reported
                                   Depth    Depth      HGL   Occurrence   Max Depth
  Node                 Type         Feet     Feet     Feet  days hr:min        Feet
  ---------------------------------------------------------------------------------
  10                   JUNCTION     0.07     0.09   411.98     0  08:00        0.09
  10050                JUNCTION     0.07     0.09   310.50     0  08:00        0.09
  10051                JUNCTION     0.03     0.04   298.02     0  07:21        0.04
  10052                JUNCTION     0.08     0.10   308.30     0  08:00        0.10
  10053                JUNCTION     0.07     0.09   303.91     0  08:00        0.09
  10115                JUNCTION     0.06     0.08   311.95     0  07:56        0.08
  10116                JUNCTION     0.05     0.07   313.96     0  07:51        0.07
  10117                JUNCTION     0.13     0.18   309.96     0  08:00        0.18
  10118                JUNCTION     0.11     0.14   311.38     0  08:00        0.14
  10119                JUNCTION     0.07     0.09   314.10     0  08:00        0.09
  10120                JUNCTION     0.06     0.08   315.09     0  08:00        0.08
  10121                JUNCTION     0.03     0.05   311.79     0  07:06        0.04
  10122                JUNCTION     0.11     0.14   313.53     0  08:00        0.14
  10123                JUNCTION     0.09     0.12   314.96     0  08:00        0.12
  10124                JUNCTION     0.08     0.10   315.89     0  08:00        0.10
  10125                JUNCTION     0.04     0.06   318.63     0  07:54        0.06
  10126                JUNCTION     0.04     0.05   322.98     0  07:48        0.05
  10127                JUNCTION     0.08     0.11   324.22     0  08:00        0.11
  10128                JUNCTION     0.08     0.10   326.14     0  08:00        0.10
  12                   JUNCTION     0.05     0.07   411.65     0  08:00        0.07
  14                   JUNCTION     0.08     0.11   413.26     0  07:46        0.11
  16                   JUNCTION    15.12    15.94   358.94     0  04:38       15.88
  18                   JUNCTION   144.70   362.89   655.89     0  08:47      280.90
  24                   JUNCTION    17.09    17.93   358.93     0  10:59       17.90
  26                   JUNCTION     0.00     0.00   388.00     0  08:24        0.00
  28                   JUNCTION     1.78    41.81   393.81     0  08:24        8.85
  30                   JUNCTION    38.78    97.38   377.38     0  08:24       79.54
  32                   JUNCTION     0.06     0.36   356.36     0  09:11        0.33
  34                   JUNCTION    36.29    58.34   366.34     0  08:48       51.71
  36                   JUNCTION    28.48    51.62   367.62     0  08:48       44.14
  40                   JUNCTION    24.58    47.90   367.90     0  08:48       40.32
  42                   JUNCTION    27.17    39.38   345.38     0  07:14       35.69
  44                   JUNCTION     0.19     0.24   324.24     0  07:49        0.24
  5167                 JUNCTION     0.22     0.28   255.13     0  07:49        0.28
  7008                 JUNCTION     0.03     0.04   391.43     0  07:29        0.04
  7009                 JUNCTION     0.13     0.18   398.62     0  08:00        0.18
  7010                 JUNCTION     0.07     0.10   413.96     0  07:46        0.10
  7011                 JUNCTION     0.05     0.06   429.89     0  08:00        0.06
  7012                 JUNCTION     0.07     0.09   425.98     0  07:59        0.09
  7013                 JUNCTION     0.12     0.16   366.91     0  08:00        0.16
  7021                 JUNCTION     0.06     0.08   315.02     0  08:00        0.08
  7022                 JUNCTION     0.04     0.06   320.79     0  07:46        0.06
  7098                 JUNCTION     2.48     2.60   384.11     0  07:17        2.59
  7208                 JUNCTION     0.15     0.21   296.67     0  08:00        0.21
  7209                 JUNCTION     0.23     0.32   291.62     0  08:00        0.32
  7210                 JUNCTION     0.11     0.15   299.07     0  08:00        0.15
  9080                 JUNCTION     0.13     0.23   289.13     0  07:14        0.23
  9082                 JUNCTION     0.16     0.22   293.37     0  08:00        0.22
  9083                 JUNCTION     0.23     0.31   294.23     0  08:00        0.31
  9084                 JUNCTION     0.17     0.24   295.57     0  08:00        0.24
  9087                 JUNCTION     0.07     0.10   306.70     0  08:00        0.10
  9089                 JUNCTION     0.07     0.09   307.90     0  08:00        0.09
  9090                 JUNCTION     0.08     0.11   308.04     0  08:00        0.11
  9093                 JUNCTION     0.12     0.16   302.13     0  08:00        0.16
  9094                 JUNCTION     0.12     0.16   303.78     0  08:00        0.16
  9096                 JUNCTION     0.06     0.08   315.57     0  08:00        0.08
  9097                 JUNCTION     0.08     0.10   323.20     0  08:00        0.10
  9098                 JUNCTION     0.05     0.06   314.20     0  07:59        0.06
  9100                 JUNCTION     7.11     7.78   345.68     0  07:15        7.76
  9101                 JUNCTION     0.09     0.12   354.24     0  08:00        0.12
  9102                 JUNCTION     0.04     0.05   376.38     0  07:59        0.05
  9103                 JUNCTION     0.05     0.07   380.32     0  07:48        0.07
  9104                 JUNCTION     0.57     0.70   345.65     0  07:44        0.70
  9105                 JUNCTION     0.04     0.05   354.13     0  07:34        0.05
  9106                 JUNCTION     0.04     0.05   372.41     0  07:50        0.05
  9107                 JUNCTION     0.04     0.06   375.14     0  07:50        0.06
  9108                 JUNCTION     0.06     0.09   410.95     0  08:00        0.09
  9109                 JUNCTION     0.11     0.15   412.73     0  08:00        0.15
  9110                 JUNCTION     0.04     0.05   423.87     0  07:26        0.05
  9111                 JUNCTION     0.19     0.26   368.59     0  08:00        0.26
  9112                 JUNCTION     0.09     0.13   396.75     0  08:00        0.13
  9113                 JUNCTION     0.05     0.06   418.84     0  08:00        0.06
  9114                 JUNCTION     0.07     0.10   419.51     0  08:00        0.10
  9115                 JUNCTION     0.04     0.05   428.47     0  08:00        0.05
  9116                 JUNCTION     5.52     6.49   437.89     0  04:35        6.49
  9117                 JUNCTION     5.19     5.33   384.07     0  01:50        5.33
  9118                 JUNCTION     0.07     0.09   403.31     0  08:00        0.09
  9119                 JUNCTION     0.06     0.08   418.35     0  08:00        0.08
  9120                 JUNCTION     0.05     0.07   423.60     0  08:00        0.07
  9121                 JUNCTION     0.09     0.12   425.21     0  08:00        0.12
  9122                 JUNCTION     0.05     0.07   427.16     0  07:52        0.07
  9123                 JUNCTION     2.94     3.36   345.68     0  07:18        3.34
  5166                 OUTFALL      0.22     0.28   254.91     0  07:49        0.28
  7014                 STORAGE     15.46    16.20   345.56     0  04:02       16.20
  7023                 STORAGE      5.62    10.02   288.79     0  07:14        9.95
  
  
  *******************
  Node Inflow Summary
  *******************
  
  -------------------------------------------------------------------------------------------------
                                  Maximum  Maximum                  Lateral       Total        Flow
                                  Lateral    Total  Time of Max      Inflow      Inflow     Balance
                                   Inflow   Inflow   Occurrence      Volume      Volume       Error
  Node                 Type           GPM      GPM  days hr:min    10^6 gal    10^6 gal     Percent
  -------------------------------------------------------------------------------------------------
  10                   JUNCTION      7.20    43.40     0  08:00     0.00248      0.0148       0.303
  10050                JUNCTION     10.40    26.60     0  08:00     0.00359     0.00913       0.431
  10051                JUNCTION      5.40     5.40     0  07:00     0.00186     0.00186       0.234
  10052                JUNCTION      8.40    64.40     0  08:00      0.0029       0.022       0.134
  10053                JUNCTION      7.20     7.20     0  07:00     0.00248     0.00248       0.695
  10115                JUNCTION      9.60    22.40     0  07:51     0.00331      0.0077       0.322
  10116                JUNCTION     12.80    12.80     0  07:00     0.00441     0.00441       0.521
  10117                JUNCTION     19.20    53.00     0  08:00     0.00662      0.0181       0.715
  10118                JUNCTION     11.20    33.80     0  08:00     0.00386      0.0116       0.734
  10119                JUNCTION      9.60    19.40     0  07:59     0.00331     0.00667       0.607
  10120                JUNCTION      9.80     9.80     0  07:00     0.00338     0.00338       0.702
  10121                JUNCTION      3.20     3.20     0  07:00      0.0011      0.0011       0.610
  10122                JUNCTION     17.60    56.00     0  08:00     0.00607      0.0192       0.521
  10123                JUNCTION      9.60    24.00     0  08:00     0.00331     0.00824       0.667
  10124                JUNCTION     14.40    14.40     0  07:00     0.00497     0.00497       0.742
  10125                JUNCTION      4.80    14.40     0  07:48     0.00166     0.00495       0.328
  10126                JUNCTION      9.60     9.60     0  07:00     0.00331     0.00331       0.441
  10127                JUNCTION      4.80    22.40     0  08:00     0.00166     0.00767       0.522
  10128                JUNCTION     17.60    17.60     0  07:00     0.00607     0.00607       0.958
  12                   JUNCTION      5.40    28.87     0  08:00     0.00186     0.00991       0.299
  14                   JUNCTION      5.00    23.00     0  07:27     0.00172      0.0079       0.420
  16                   JUNCTION      0.00   226.95     0  00:00           0     0.00208      29.234
  18                   JUNCTION      0.00   350.00     0  06:36           0       0.115       0.586
  24                   JUNCTION      0.00   166.53     0  00:03           0     0.00161    6088.078
  26                   JUNCTION      0.00     4.19     0  08:24           0   2.28e-007       0.228 gal
  28                   JUNCTION      0.00    86.98     0  08:19           0     0.00306   35979.404
  30                   JUNCTION      0.00    87.26     0  06:55           0     0.00668     117.501
  32                   JUNCTION      0.00   109.30     0  08:48           0      0.0117      -0.581
  34                   JUNCTION      0.00   241.66     0  09:12           0      0.0191      13.694
  36                   JUNCTION      0.00   233.61     0  09:12           0      0.0215       9.956
  40                   JUNCTION      0.00   350.18     0  08:48           0       0.121       4.069
  42                   JUNCTION      0.00   275.87     0  08:48           0         0.1       3.721
  44                   JUNCTION      0.00   276.40     0  08:48           0      0.0961       1.805
  5167                 JUNCTION      0.00   262.61     0  07:49           0      0.0938       0.038
  7008                 JUNCTION      9.80     9.80     0  07:00     0.00338     0.00338       0.279
  7009                 JUNCTION      8.80    52.40     0  08:00     0.00304      0.0179       0.571
  7010                 JUNCTION      3.60    18.00     0  07:22     0.00124      0.0062       0.257
  7011                 JUNCTION      7.20     7.27     0  07:00     0.00248     0.00252       0.839
  7012                 JUNCTION      3.60    12.60     0  07:51     0.00124     0.00433       0.457
  7013                 JUNCTION      1.80   124.33     0  08:00    0.000621      0.0422       0.280
  7021                 JUNCTION     16.20    16.20     0  07:00     0.00559     0.00559       0.770
  7022                 JUNCTION     12.60    12.60     0  07:00     0.00435     0.00435       0.402
  7098                 JUNCTION      3.60    63.20     0  08:00     0.00124      0.0217       3.598
  7208                 JUNCTION      9.00    53.60     0  08:00      0.0031      0.0183       0.787
  7209                 JUNCTION      3.60   336.40     0  08:00     0.00124       0.114       0.255
  7210                 JUNCTION      5.40    98.60     0  08:00     0.00186      0.0336       0.217
  9080                 JUNCTION      0.00   336.40     0  08:00           0       0.114       0.024
  9082                 JUNCTION      1.80   169.80     0  08:00    0.000621      0.0576       0.071
  9083                 JUNCTION      5.40   168.00     0  08:00     0.00186      0.0571       0.213
  9084                 JUNCTION      9.00    99.60     0  08:00      0.0031       0.034       0.421
  9087                 JUNCTION     12.60    39.20     0  08:00     0.00435      0.0134       0.382
  9089                 JUNCTION     14.60    37.00     0  07:52     0.00504      0.0127       0.459
  9090                 JUNCTION     10.00    63.00     0  08:00     0.00345      0.0214       0.299
  9093                 JUNCTION     12.40    69.80     0  08:00     0.00428      0.0238       0.356
  9094                 JUNCTION      6.40    57.40     0  08:00     0.00221      0.0196       0.360
  9096                 JUNCTION      5.40    43.80     0  08:00     0.00186      0.0149       0.160
  9097                 JUNCTION     16.00    38.40     0  08:00     0.00552      0.0131       0.467
  9098                 JUNCTION     10.80    23.40     0  07:44     0.00373     0.00805       0.339
  9100                 JUNCTION      0.00   143.97     0  07:28           0      0.0479       2.379
  9101                 JUNCTION      0.00   124.33     0  08:00           0      0.0421       0.064
  9102                 JUNCTION      1.80    17.80     0  07:48    0.000621     0.00611       0.096
  9103                 JUNCTION     16.00    16.00     0  07:00     0.00552     0.00552       0.487
  9104                 JUNCTION      0.00    30.44     0  03:47           0     0.00633       4.854
  9105                 JUNCTION      0.00    17.80     0  07:41           0     0.00611      -0.188
  9106                 JUNCTION      6.40    17.80     0  07:30     0.00221     0.00612       0.188
  9107                 JUNCTION      1.60    11.40     0  07:29    0.000552     0.00392       0.215
  9108                 JUNCTION      5.20    43.60     0  08:00     0.00179      0.0149       0.219
  9109                 JUNCTION     15.40    38.40     0  07:41     0.00531      0.0132       0.758
  9110                 JUNCTION     14.40    14.40     0  07:00     0.00497     0.00497       0.227
  9111                 JUNCTION      9.00   104.73     0  08:00      0.0031      0.0357       0.583
  9112                 JUNCTION     14.40    95.67     0  08:00     0.00497      0.0326       0.263
  9113                 JUNCTION      5.40    23.47     0  08:00     0.00186     0.00805       0.103
  9114                 JUNCTION      3.60    18.07     0  08:00     0.00124     0.00621       0.271
  9115                 JUNCTION      7.20    14.47     0  08:00     0.00248     0.00498       0.254
  9116                 JUNCTION      9.20     9.20     0  07:00     0.00317     0.00317      25.535
  9117                 JUNCTION     10.80    74.88     0  07:17     0.00373      0.0246       5.436
  9118                 JUNCTION     16.20    59.60     0  08:00     0.00559      0.0204       0.228
  9119                 JUNCTION      7.20    36.20     0  08:00     0.00248      0.0124       0.123
  9120                 JUNCTION      3.60    29.00     0  08:00     0.00124      0.0099       0.111
  9121                 JUNCTION     12.80    25.40     0  07:59     0.00441     0.00872       0.756
  9122                 JUNCTION      9.00     9.00     0  07:00      0.0031      0.0031       0.523
  9123                 JUNCTION      0.00    27.16     0  03:47           0     0.00658       9.046
  5166                 OUTFALL       0.00   262.61     0  07:49           0      0.0937       0.000
  7014                 STORAGE       0.00   142.69     0  07:32           0      0.0473       3.726
  7023                 STORAGE       0.00   336.62     0  07:35           0       0.115      -0.402
  
  
  **********************
  Node Surcharge Summary
  **********************
  
  Surcharging occurs when water rises above the top of the highest conduit.
  ---------------------------------------------------------------------
                                               Max. Height   Min. Depth
                                   Hours       Above Crown    Below Rim
  Node                 Type      Surcharged           Feet         Feet
  ---------------------------------------------------------------------
  16                   JUNCTION       11.53         15.443        0.000
  18                   JUNCTION       11.91        362.557        0.000
  24                   JUNCTION       11.69         17.434        0.000
  28                   JUNCTION        3.60         41.307        0.000
  30                   JUNCTION        4.25         96.882        0.000
  34                   JUNCTION       11.21         57.840        0.000
  36                   JUNCTION       11.13         51.118        0.000
  40                   JUNCTION       10.15         47.400        0.000
  42                   JUNCTION       10.39         38.880        0.000
  7098                 JUNCTION       10.32          1.776        4.287
  9100                 JUNCTION        9.80          6.912        7.422
  9116                 JUNCTION        7.48          5.823        0.000
  9117                 JUNCTION       10.94          4.503        0.000
  9123                 JUNCTION        8.64          2.356        6.988
  
  
  *********************
  Node Flooding Summary
  *********************
  
  Flooding refers to all water that overflows a node, whether it ponds or not.
  --------------------------------------------------------------------------
                                                             Total   Maximum
                                 Maximum   Time of Max       Flood    Ponded
                        Hours       Rate    Occurrence      Volume     Depth
  Node                 Flooded       GPM   days hr:min    10^6 gal      Feet
  --------------------------------------------------------------------------
  9116                    7.42      9.13      0  07:01       0.002     0.000
  9117                   10.17     74.14      0  07:19       0.023     0.000
  7014                    7.97    142.56      0  07:32       0.040     0.000
  
  
  **********************
  Storage Volume Summary
  **********************
  
  --------------------------------------------------------------------------------------------------
                         Average     Avg  Evap Exfil       Maximum     Max    Time of Max    Maximum
                          Volume    Pcnt  Pcnt  Pcnt        Volume    Pcnt     Occurrence    Outflow
  Storage Unit          1000 ft3    Full  Loss  Loss      1000 ft3    Full    days hr:min        GPM
  --------------------------------------------------------------------------------------------------
  7014                     0.437      95     0     0         0.458     100       0  04:02     226.95
  7023                     0.159      37     0     0         0.283      65       0  07:14     350.00
  
  
  ***********************
  Outfall Loading Summary
  ***********************
  
  -----------------------------------------------------------
                         Flow       Avg       Max       Total
                         Freq      Flow      Flow      Volume
  Outfall Node           Pcnt       GPM       GPM    10^6 gal
  -----------------------------------------------------------
  5166                  96.21    183.53    262.61       0.094
  -----------------------------------------------------------
  System                96.21    183.53    262.61       0.094
  
  
  ********************
  Link Flow Summary
  ********************
  
  -----------------------------------------------------------------------------
                                 Maximum  Time of Max   Maximum    Max/    Max/
                                  |Flow|   Occurrence   |Veloc|    Full    Full
  Link                 Type          GPM  days hr:min    ft/sec    Flow   Depth
  -----------------------------------------------------------------------------
  0                    CONDUIT    262.61     0  07:49      3.20    0.18    0.28
  1                    CONDUIT      9.00     0  07:51      1.17    0.02    0.10
  10                   CONDUIT      7.27     0  08:00      1.03    0.02    0.09
  11                   CONDUIT     14.47     0  08:00      2.62    0.01    0.08
  12                   CONDUIT     18.07     0  08:00      1.37    0.04    0.14
  13                   CONDUIT     28.87     0  08:00      3.45    0.02    0.10
  14                   CONDUIT     95.67     0  08:00      4.60    0.08    0.19
  15                   CONDUIT    104.73     0  08:00      2.04    0.30    0.36
  16                   CONDUIT     16.00     0  07:48      1.78    0.02    0.11
  17                   CONDUIT     17.80     0  07:48      3.69    0.01    0.07
  18                   CONDUIT    124.33     0  08:00      4.29    0.13    0.24
  19                   CONDUIT    124.33     0  08:00      6.73    0.07    0.59
  2                    CONDUIT     12.60     0  07:59      1.17    0.03    0.12
  20                   CONDUIT     14.40     0  07:22      2.99    0.01    0.07
  21                   CONDUIT     18.00     0  07:27      1.17    0.05    0.16
  22                   CONDUIT     38.40     0  08:00      1.58    0.11    0.21
  23                   CONDUIT     43.60     0  08:00      3.70    0.04    0.13
  24                   CONDUIT     52.40     0  08:00      1.70    0.15    0.25
  25                   CONDUIT      9.80     0  07:29      2.71    0.01    0.06
  26                   CONDUIT     11.40     0  07:30      1.74    0.02    0.09
  27                   CONDUIT     17.80     0  07:41      3.56    0.01    0.07
  28                   CONDUIT     17.80     0  07:30      6.03    0.01    0.44
  29                   CONDUIT     25.99     0  03:47      1.76    0.03    1.00
  3                    CONDUIT     25.40     0  08:00      1.41    0.07    0.17
  30                   CONDUIT     27.16     0  03:47      3.28    0.02    1.00
  31                   CONDUIT    142.69     0  07:32      0.91    0.10    1.00
  32                   CONDUIT     16.20     0  08:00      1.61    0.03    0.12
  33                   CONDUIT     26.60     0  08:00      2.04    0.04    0.14
  34                   CONDUIT     99.60     0  08:00      1.88    0.27    0.37
  35                   CONDUIT    168.00     0  08:00      2.47    0.43    0.45
  36                   CONDUIT    336.62     0  07:35      3.22    0.15    0.67
  37                   CONDUIT     37.00     0  07:56      2.87    0.04    0.14
  38                   CONDUIT     63.00     0  08:00      3.71    0.06    0.17
  39                   CONDUIT      7.20     0  07:42      0.57    0.03    0.14
  4                    CONDUIT     29.00     0  08:00      3.45    0.02    0.10
  40                   CONDUIT     57.40     0  08:00      2.04    0.12    0.24
  41                   CONDUIT     38.40     0  08:00      2.56    0.05    0.15
  42                   CONDUIT     43.80     0  08:00      3.31    0.03    0.14
  43                   CONDUIT     12.60     0  07:44      2.05    0.01    0.08
  44                   CONDUIT     12.80     0  07:51      1.40    0.02    0.11
  45                   CONDUIT     22.40     0  07:52      2.15    0.03    0.12
  46                   CONDUIT      9.80     0  07:59      1.08    0.03    0.11
  47                   CONDUIT      5.40     0  07:21      1.47    0.01    0.06
  48                   CONDUIT     39.20     0  08:00      2.82    0.04    0.14
  49                   CONDUIT     53.60     0  08:00      1.55    0.18    0.27
  5                    CONDUIT     43.40     0  08:00      3.31    0.04    0.14
  50                   CONDUIT    169.80     0  08:00      2.83    0.24    0.41
  51                   CONDUIT     64.40     0  08:00      1.83    0.05    0.32
  52                   CONDUIT    336.40     0  08:00      4.53    0.47    0.48
  53                   CONDUIT     98.60     0  08:00      2.38    0.12    0.32
  54                   CONDUIT     23.40     0  07:39      2.29    0.02    0.13
  55                   CONDUIT     69.80     0  08:00      2.46    0.12    0.24
  56                   CONDUIT      3.27     0  07:09      0.81    0.01    0.07
  57                   CONDUIT     19.40     0  08:00      1.58    0.04    0.13
  58                   CONDUIT     33.80     0  08:00      1.51    0.09    0.20
  59                   CONDUIT     53.00     0  08:00      1.74    0.14    0.25
  6                    CONDUIT     59.60     0  08:00      2.96    0.04    0.57
  60                   CONDUIT     14.40     0  08:00      1.14    0.04    0.13
  61                   CONDUIT     24.00     0  08:00      1.42    0.06    0.16
  62                   CONDUIT     56.00     0  08:00      2.27    0.10    0.21
  63                   CONDUIT     17.60     0  08:00      1.31    0.05    0.14
  64                   CONDUIT     22.40     0  08:00      1.39    0.06    0.16
  65                   CONDUIT      9.60     0  07:48      1.69    0.01    0.08
  66                   CONDUIT     14.40     0  07:47      2.11    0.02    0.09
  67                   CONDUIT     36.20     0  08:00      2.93    0.03    0.13
  68                   CONDUIT     23.47     0  08:00      2.99    0.02    0.10
  69                   CONDUIT     23.00     0  07:41      1.42    0.06    0.16
  7                    CONDUIT     64.08     0  07:17      2.21    0.07    1.00
  73                   CONDUIT      0.00     0  08:24      0.00    0.00    0.50
  75                   CONDUIT      4.19     0  08:24      0.10    0.01    0.50
  77                   CONDUIT     86.98     0  08:19      1.29    0.14    1.00
  79                   CONDUIT     87.26     0  06:55      5.64    0.13    0.86
  8                    CONDUIT      0.20     0  00:00      0.05    2.26    0.50
  81                   CONDUIT    241.66     0  09:12      3.02    0.41    0.86
  83                   CONDUIT    233.61     0  09:12      4.50    0.51    1.00
  85                   CONDUIT    206.67     0  09:12      4.29    0.41    1.00
  9                    CONDUIT      0.14     0  00:00      0.06    2.26    0.50
  91                   CONDUIT    350.18     0  08:48      8.94    2.77    1.00
  93                   CONDUIT    166.53     0  00:03      3.63    0.78    1.00
  95                   CONDUIT    276.40     0  08:48      4.19    0.81    0.74
  97                   CONDUIT    262.61     0  07:49      6.40    0.43    0.47
  99                   CONDUIT    275.87     0  08:48      3.13    1.15    1.00
  MANLAKES1            PUMP       175.00     0  00:00              1.00
  MANLAKES2            PUMP       175.00     0  06:36              1.00
  TRISPRINGS1          PUMP       113.48     0  00:00              0.57
  TRISPRINGS2          PUMP       113.48     0  00:00              0.57
  
  
  ***************************
  Flow Classification Summary
  ***************************
  
  -------------------------------------------------------------------------------------
                      Adjusted    ---------- Fraction of Time in Flow Class ---------- 
                       /Actual         Up    Down  Sub   Sup   Up    Down  Norm  Inlet 
  Conduit               Length    Dry  Dry   Dry   Crit  Crit  Crit  Crit  Ltd   Ctrl  
  -------------------------------------------------------------------------------------
  0                       1.00   0.04  0.00  0.00  0.00  0.96  0.00  0.00  0.18  0.00
  1                       1.00   0.00  0.00  0.00  0.00  0.00  0.00  1.00  0.00  0.00
  10                      1.00   0.00  0.00  0.00  0.00  0.00  0.00  1.00  0.00  0.00
  11                      1.00   0.00  0.00  0.00  0.00  0.00  0.00  1.00  0.00  0.00
  12                      1.00   0.00  0.00  0.00  0.00  0.00  0.00  1.00  0.00  0.00
  13                      1.00   0.00  0.00  0.00  0.00  0.00  0.00  1.00  0.00  0.00
  14                      1.00   0.00  0.00  0.00  0.00  0.00  0.00  1.00  0.00  0.00
  15                      1.00   0.00  0.00  0.00  0.00  0.00  0.00  1.00  0.00  0.00
  16                      1.00   0.00  0.00  0.00  0.00  0.00  0.00  1.00  0.00  0.00
  17                      1.00   0.00  0.00  0.00  0.00  0.00  0.00  1.00  0.00  0.00
  18                      1.00   0.00  0.00  0.00  0.00  0.00  0.00  1.00  0.00  0.00
  19                      1.00   0.00  0.00  0.00  0.96  0.00  0.00  0.04  0.84  0.00
  2                       1.00   0.00  0.00  0.00  0.00  0.00  0.00  1.00  0.00  0.00
  20                      1.00   0.00  0.00  0.00  0.00  0.00  0.00  1.00  0.00  0.00
  21                      1.00   0.00  0.00  0.00  1.00  0.00  0.00  0.00  0.99  0.00
  22                      1.00   0.00  0.00  0.00  0.00  0.00  0.00  1.00  0.00  0.00
  23                      1.00   0.00  0.00  0.00  0.00  0.00  0.00  1.00  0.00  0.00
  24                      1.00   0.00  0.00  0.00  0.00  0.00  0.00  1.00  0.00  0.00
  25                      1.00   0.00  0.00  0.00  0.00  0.00  0.00  1.00  0.00  0.00
  26                      1.00   0.00  0.00  0.00  0.00  0.00  0.00  1.00  0.00  0.00
  27                      1.00   0.00  0.00  0.00  0.00  0.00  0.00  1.00  0.00  0.00
  28                      1.00   0.00  0.00  0.00  0.88  0.00  0.00  0.12  0.68  0.00
  29                      1.00   0.00  0.00  0.00  0.92  0.00  0.00  0.08  0.06  0.00
  3                       1.00   0.00  0.00  0.00  0.00  0.00  0.00  1.00  0.00  0.00
  30                      1.00   0.00  0.00  0.00  0.96  0.00  0.00  0.04  0.09  0.00
  31                      1.00   0.00  0.00  0.00  1.00  0.00  0.00  0.00  0.15  0.00
  32                      1.00   0.00  0.00  0.00  0.00  0.00  0.00  1.00  0.00  0.00
  33                      1.00   0.00  0.00  0.00  0.00  0.00  0.00  1.00  0.00  0.00
  34                      1.00   0.00  0.00  0.00  0.81  0.00  0.00  0.19  0.35  0.00
  35                      1.00   0.00  0.00  0.00  0.00  0.00  0.00  1.00  0.00  0.00
  36                      1.00   0.00  0.00  0.00  1.00  0.00  0.00  0.00  0.97  0.00
  37                      1.00   0.00  0.00  0.00  0.00  0.00  0.00  1.00  0.00  0.00
  38                      1.00   0.00  0.00  0.00  0.00  0.00  0.00  1.00  0.00  0.00
  39                      1.00   0.00  0.00  0.00  0.96  0.00  0.00  0.04  0.42  0.00
  4                       1.00   0.00  0.00  0.00  0.00  0.00  0.00  1.00  0.00  0.00
  40                      1.00   0.00  0.00  0.00  0.00  0.00  0.00  1.00  0.00  0.00
  41                      1.00   0.00  0.00  0.00  0.00  0.00  0.00  1.00  0.00  0.00
  42                      1.00   0.00  0.00  0.00  0.00  0.79  0.00  0.21  0.56  0.00
  43                      1.00   0.00  0.00  0.00  0.00  0.00  0.00  1.00  0.00  0.00
  44                      1.00   0.00  0.00  0.00  0.00  0.00  0.00  1.00  0.00  0.00
  45                      1.00   0.00  0.00  0.00  0.00  0.00  0.00  1.00  0.00  0.00
  46                      1.00   0.00  0.00  0.00  0.00  0.00  0.00  1.00  0.00  0.00
  47                      1.00   0.00  0.00  0.00  0.00  0.00  0.00  1.00  0.00  0.00
  48                      1.00   0.00  0.00  0.00  0.00  0.00  0.00  1.00  0.00  0.00
  49                      1.00   0.00  0.00  0.00  0.00  0.00  0.00  1.00  0.00  0.00
  5                       1.00   0.00  0.00  0.00  0.00  0.00  0.00  1.00  0.00  0.00
  50                      1.00   0.00  0.00  0.00  0.00  1.00  0.00  0.00  1.00  0.00
  51                      1.00   0.00  0.00  0.00  1.00  0.00  0.00  0.00  1.00  0.00
  52                      1.00   0.00  0.00  0.00  0.00  0.00  0.00  1.00  0.00  0.00
  53                      1.00   0.00  0.00  0.00  0.00  1.00  0.00  0.00  0.98  0.00
  54                      1.00   0.00  0.00  0.00  0.00  0.81  0.00  0.19  0.58  0.00
  55                      1.00   0.00  0.00  0.00  0.00  0.00  0.00  1.00  0.00  0.00
  56                      1.00   0.00  0.00  0.00  0.13  0.00  0.00  0.87  0.07  0.00
  57                      1.00   0.00  0.00  0.00  0.00  0.00  0.00  1.00  0.00  0.00
  58                      1.00   0.00  0.00  0.00  0.00  0.00  0.00  1.00  0.00  0.00
  59                      1.00   0.00  0.00  0.00  0.00  0.00  0.00  1.00  0.00  0.00
  6                       1.00   0.00  0.00  0.00  0.98  0.00  0.00  0.02  0.90  0.00
  60                      1.00   0.00  0.00  0.00  0.00  0.00  0.00  1.00  0.00  0.00
  61                      1.00   0.00  0.00  0.00  0.00  0.00  0.00  1.00  0.00  0.00
  62                      1.00   0.00  0.00  0.00  0.00  0.00  0.00  1.00  0.00  0.00
  63                      1.00   0.00  0.00  0.00  0.00  0.00  0.00  1.00  0.00  0.00
  64                      1.00   0.00  0.00  0.00  0.00  0.00  0.00  1.00  0.00  0.00
  65                      1.00   0.00  0.00  0.00  0.00  0.00  0.00  1.00  0.00  0.00
  66                      1.00   0.00  0.00  0.00  0.00  0.00  0.00  1.00  0.00  0.00
  67                      1.00   0.00  0.00  0.00  0.00  1.00  0.00  0.00  1.00  0.00
  68                      1.00   0.00  0.00  0.00  0.00  1.00  0.00  0.00  1.00  0.00
  69                      1.00   0.00  0.00  0.00  0.00  0.00  0.00  1.00  0.00  0.00
  7                       1.00   0.00  0.00  0.00  0.99  0.00  0.00  0.00  0.07  0.00
  73                      1.00   0.00  1.00  0.00  0.00  0.00  0.00  0.00  0.30  0.00
  75                      1.00   0.49  0.51  0.00  0.00  0.00  0.00  0.00  0.30  0.00
  77                      1.00   0.35  0.14  0.00  0.51  0.00  0.00  0.00  0.00  0.00
  79                      1.00   0.35  0.00  0.00  0.60  0.05  0.00  0.00  0.07  0.00
  8                       1.00   0.00  0.00  0.00  0.00  0.00  0.00  1.00  0.00  0.00
  81                      1.00   0.00  0.35  0.00  0.65  0.00  0.00  0.00  0.24  0.00
  83                      1.00   0.00  0.00  0.00  0.99  0.01  0.00  0.00  0.05  0.00
  85                      1.00   0.00  0.00  0.00  0.98  0.01  0.00  0.00  0.07  0.00
  9                       1.00   0.00  0.00  0.00  0.00  0.00  0.00  1.00  0.00  0.00
  91                      1.00   0.00  0.00  0.00  0.98  0.02  0.00  0.00  0.00  0.00
  93                      1.00   0.00  0.00  0.00  1.00  0.00  0.00  0.00  0.02  0.00
  95                      1.00   0.00  0.03  0.00  0.65  0.32  0.00  0.00  0.03  0.00
  97                      1.00   0.03  0.00  0.00  0.00  0.00  0.00  0.97  0.00  0.00
  99                      1.00   0.00  0.00  0.00  0.99  0.01  0.00  0.00  0.08  0.00
  
  
  *************************
  Conduit Surcharge Summary
  *************************
  
  ----------------------------------------------------------------------------
                                                           Hours        Hours 
                         --------- Hours Full --------   Above Full   Capacity
  Conduit                Both Ends  Upstream  Dnstream   Normal Flow   Limited
  ----------------------------------------------------------------------------
  19                          0.01      0.01      9.80      0.01         0.01
  29                          1.08      1.08      8.64      0.01         0.01
  30                          8.76      8.76      9.82      0.01         0.01
  31                          9.89      9.89     11.98      0.01         0.01
  36                          0.01      0.01     11.99      0.01         0.01
  6                           0.01      0.01     10.32      0.01         0.01
  7                          10.44     10.44     10.94      0.01         0.01
  73                          0.01      0.01      3.59      0.01         0.01
  75                          0.01      0.01      3.59      0.01         0.01
  77                          3.60      3.60      4.24      0.01         0.01
  79                          0.01      0.01      4.25      0.01         0.01
  8                           0.01     11.11      0.01      0.02         0.01
  81                          0.01      0.01      5.39      0.01         0.01
  83                         11.13     11.13     11.21      0.01         0.01
  85                         10.14     10.14     11.13      0.01         0.01
  9                           0.01      7.48      0.01      7.43         0.01
  91                         10.28     10.29     11.89      8.72         0.01
  93                         11.53     11.53     11.69      0.01         0.01
  95                          0.01      0.01     10.38      0.01         0.01
  99                         10.14     10.14     10.39      2.32         2.45
  
  
  ***************
  Pumping Summary
  ***************
  
  ---------------------------------------------------------------------------------------------------------
                                                  Min       Avg       Max     Total     Power    % Time Off
                        Percent   Number of      Flow      Flow      Flow    Volume     Usage    Pump Curve
  Pump                 Utilized   Start-Ups       GPM       GPM       GPM  10^6 gal     Kw-hr    Low   High
  ---------------------------------------------------------------------------------------------------------
  MANLAKES1               73.30          16      0.00    175.00    175.00     0.092     46.11    0.0    0.0
  MANLAKES2               18.32           4      0.00    175.00    175.00     0.023     20.83    0.0    0.0
  TRISPRINGS1              6.37          51      0.00      8.55    113.48     0.000      0.01    0.0    0.0
  TRISPRINGS2             23.77          57      0.00      7.63    113.48     0.002      0.05    0.0    0.0
  

  Analysis begun on:  Wed Jan 02 04:52:38 2019
  Analysis ended on:  Wed Jan 02 04:52:40 2019
  Total elapsed time: 00:00:02