
  EPA STORM WATER MANAGEMENT MODEL - VERSION 5.1 (Build 5.1.012)
  --------------------------------------------------------------

  Scenario Run :  BASE 
  
  WARNING 08: elevation drop exceeds length for Conduit 1570C
  
  *********************************************************
  NOTE: The summary statistics displayed in this report are
  based on results found at every computational time step,  
  not just on results from each reporting time step.
  *********************************************************
  
  ****************
  Analysis Options
  ****************
  Flow Units ............... LPS
  Process Models:
    Rainfall/Runoff ........ NO
    RDII ................... NO
    Snowmelt ............... NO
    Groundwater ............ NO
    Flow Routing ........... YES
    Ponding Allowed ........ NO
    Water Quality .......... NO
  Flow Routing Method ...... DYNWAVE
  Starting Date ............ 01/01/1988 00:00:00
  Ending Date .............. 01/01/1988 06:00:00
  Antecedent Dry Days ...... 0.0
  Report Time Step ......... 00:00:10
  Routing Time Step ........ 1.00 sec
  Variable Time Step ....... YES
  Maximum Trials ........... 8
  Number of Threads ........ 8
  Head Tolerance ........... 0.000010 m
  
  
  *********************
  Control Actions Taken
  *********************

  
  **************************        Volume        Volume
  Flow Routing Continuity        hectare-m      10^6 ltr
  **************************     ---------     ---------
  Dry Weather Inflow .......         0.045         0.454
  Wet Weather Inflow .......         0.000         0.000
  Groundwater Inflow .......         0.000         0.000
  RDII Inflow ..............         0.000         0.000
  External Inflow ..........         1.376        13.765
  External Outflow .........         1.309        13.095
  Flooding Loss ............         0.000         0.001
  Evaporation Loss .........         0.000         0.001
  Exfiltration Loss ........         0.000         0.000
  Initial Stored Volume ....         0.027         0.273
  Final Stored Volume ......         0.108         1.080
  Continuity Error (%) .....         2.179
  
  
  *************************
  Highest Continuity Errors
  *************************
  Node 10309A (12.81%)
  Node WETWELL (10.64%)
  Node 15009C (7.52%)
  Node 10309E (1.04%)
  
  
  ***************************
  Time-Step Critical Elements
  ***************************
  None
  
  
  ********************************
  Highest Flow Instability Indexes
  ********************************
  Link OR1@82309D-82308D (53)
  
  
  *************************
  Routing Time Step Summary
  *************************
  Minimum Time Step           :     0.50 sec
  Average Time Step           :     1.00 sec
  Maximum Time Step           :     1.00 sec
  Percent in Steady State     :     0.00
  Average Iterations per Step :     7.09
  Percent Not Converging      :    69.48
  
  
  ******************
  Node Depth Summary
  ******************
  
  ---------------------------------------------------------------------------------
                                 Average  Maximum  Maximum  Time of Max    Reported
                                   Depth    Depth      HGL   Occurrence   Max Depth
  Node                 Type       Meters   Meters   Meters  days hr:min      Meters
  ---------------------------------------------------------------------------------
  10309                JUNCTION     0.17     0.24     1.84     0  02:36        0.24
  10309A               JUNCTION     0.37     0.43     2.03     0  00:50        0.43
  10309B               JUNCTION     0.14     0.23     1.83     0  02:39        0.23
  10309C               JUNCTION     0.16     0.23     1.83     0  03:04        0.23
  10309D               JUNCTION     0.15     0.23     1.83     0  03:00        0.23
  10309E               JUNCTION     0.29     0.33     1.93     0  03:08        0.33
  15009                JUNCTION     0.06     0.11    11.61     0  00:40        0.11
  15009A               JUNCTION     0.06     0.11    11.61     0  00:40        0.11
  15009B               JUNCTION     0.06     0.11    11.61     0  00:40        0.11
  15009C               JUNCTION     1.85     3.32    15.32     0  02:59        3.32
  15009D               JUNCTION     0.06     0.11    11.61     0  00:41        0.11
  15009E               JUNCTION     0.10     0.16    11.66     0  02:05        0.16
  16009                JUNCTION     0.13     0.18     2.18     0  00:48        0.18
  16009A               JUNCTION     0.13     0.21     2.21     0  00:25        0.21
  16009B               JUNCTION     0.10     0.18     2.18     0  00:50        0.18
  16009C               JUNCTION     0.12     0.17     2.17     0  03:01        0.17
  16009D               JUNCTION     0.11     0.18     2.18     0  03:00        0.18
  16009E               JUNCTION     0.22     0.25     2.25     0  03:05        0.25
  16109                JUNCTION     0.11     0.15     2.95     0  02:29        0.15
  16109A               JUNCTION     0.10     0.15     2.95     0  02:35        0.15
  16109B               JUNCTION     0.08     0.14     2.94     0  02:33        0.14
  16109C               JUNCTION     0.08     0.17     2.97     0  03:01        0.17
  16109D               JUNCTION     0.08     0.14     2.94     0  03:00        0.14
  16109E               JUNCTION     0.23     0.25     3.05     0  05:02        0.25
  80408                JUNCTION     0.09     0.11    24.71     0  00:35        0.11
  80408A               JUNCTION     0.08     0.11    24.71     0  00:37        0.11
  80408B               JUNCTION     0.05     0.10    24.70     0  00:38        0.10
  80408C               JUNCTION     0.05     0.10    24.70     0  00:38        0.10
  80408D               JUNCTION     0.05     0.10    24.70     0  00:37        0.10
  80408E               JUNCTION     5.21    23.40    48.00     0  02:58       23.40
  80608                JUNCTION     0.10     0.13    18.43     0  01:30        0.13
  80608A               JUNCTION     0.09     0.13    18.43     0  01:29        0.13
  80608B               JUNCTION     0.07     0.12    18.42     0  01:42        0.12
  80608C               JUNCTION     0.07     0.12    18.42     0  01:42        0.12
  80608D               JUNCTION     0.06     0.10    18.40     0  01:02        0.10
  80608E               JUNCTION     4.76    16.59    34.89     0  03:00       16.58
  81009                JUNCTION     0.06     0.11    28.31     0  00:18        0.11
  81009A               JUNCTION     0.06     0.11    28.31     0  00:18        0.11
  81009B               JUNCTION     0.06     0.11    28.31     0  00:18        0.11
  81009C               JUNCTION     0.06     0.11    28.31     0  00:17        0.11
  81009D               JUNCTION     0.06     0.11    28.31     0  00:18        0.11
  81009E               JUNCTION     0.06     0.11    28.31     0  00:18        0.11
  81309                JUNCTION     0.07     0.12    17.62     0  00:26        0.12
  81309A               JUNCTION     0.07     0.12    17.62     0  00:26        0.12
  81309B               JUNCTION     0.07     0.12    17.62     0  00:26        0.12
  81309C               JUNCTION     0.07     0.13    17.63     0  00:22        0.13
  81309D               JUNCTION     0.07     0.12    17.62     0  00:26        0.12
  81309E               JUNCTION     0.07     0.12    17.62     0  00:25        0.12
  82308D               JUNCTION     0.14     0.25    12.55     0  02:59        0.25
  82309                JUNCTION     0.19     0.27    12.57     0  02:28        0.27
  82309A               JUNCTION     0.18     0.27    12.57     0  02:34        0.27
  82309B               JUNCTION     0.14     0.25    12.55     0  02:32        0.25
  82309C               JUNCTION     0.14     0.30    12.60     0  03:00        0.30
  10208                OUTFALL      0.15     0.22     0.12     0  02:36        0.22
  10208A               OUTFALL      2.10     2.10     2.00     0  00:00        2.10
  10208B               OUTFALL      0.12     0.21     0.11     0  02:39        0.21
  10208C               OUTFALL      0.14     0.21     0.11     0  03:04        0.21
  10208D               OUTFALL      0.13     0.21     0.11     0  03:00        0.21
  10208E               OUTFALL      0.26     0.30     0.20     0  03:08        0.30
  82309D               STORAGE      0.14     0.25    12.55     0  02:59        0.25
  WETWELL              STORAGE      5.19     8.26    20.56     0  03:12        8.26
  
  
  *******************
  Node Inflow Summary
  *******************
  
  -------------------------------------------------------------------------------------------------
                                  Maximum  Maximum                  Lateral       Total        Flow
                                  Lateral    Total  Time of Max      Inflow      Inflow     Balance
                                   Inflow   Inflow   Occurrence      Volume      Volume       Error
  Node                 Type           LPS      LPS  days hr:min    10^6 ltr    10^6 ltr     Percent
  -------------------------------------------------------------------------------------------------
  10309                JUNCTION      0.00   145.02     0  00:48           0        1.75       0.646
  10309A               JUNCTION      0.00   163.40     0  00:30           0        1.68      14.694
  10309B               JUNCTION      0.00   135.01     0  00:50           0        1.46       0.084
  10309C               JUNCTION      0.00   133.80     0  03:01           0        1.42       0.843
  10309D               JUNCTION      0.00   135.00     0  03:00           0        1.45       0.115
  10309E               JUNCTION      0.00   338.47     0  03:05           0        5.64       1.056
  15009                JUNCTION      0.00    50.70     0  00:30           0       0.541       0.046
  15009A               JUNCTION      0.00    50.71     0  00:30           0       0.541       0.090
  15009B               JUNCTION      0.00    50.67     0  00:30           0       0.541       0.065
  15009C               JUNCTION      0.00    53.97     0  00:24           0       0.542       8.135
  15009D               JUNCTION      0.00    50.54     0  00:30           0       0.541      -0.073
  15009E               JUNCTION      0.00   101.57     0  02:49           0        1.09       0.262
  16009                JUNCTION      0.00   145.03     0  00:46           0        1.75       0.427
  16009A               JUNCTION      0.00   146.03     0  00:46           0        1.68       0.265
  16009B               JUNCTION      0.00   135.01     0  00:48           0        1.46       0.050
  16009C               JUNCTION      0.00   133.83     0  03:01           0        1.42       0.152
  16009D               JUNCTION      0.00   135.00     0  03:00           0        1.46       0.128
  16009E               JUNCTION      0.00   338.61     0  03:04           0        5.67       0.466
  16109                JUNCTION      0.00    95.00     0  02:29           0        1.22       0.000
  16109A               JUNCTION      0.00    96.00     0  02:35           0        1.14       0.000
  16109B               JUNCTION      0.00    85.00     0  02:33           0       0.919       0.000
  16109C               JUNCTION      0.00   112.17     0  03:00           0       0.963       0.000
  16109D               JUNCTION      0.00    85.00     0  02:59           0       0.916       0.000
  16109E               JUNCTION      0.00   244.63     0  03:14           0        4.62       0.000
  80408                JUNCTION     55.00    55.00     0  00:15       0.805       0.805       0.228
  80408A               JUNCTION     56.00    56.00     0  00:15       0.724       0.724       0.163
  80408B               JUNCTION     45.00    45.00     0  00:15       0.486       0.486      -0.066
  80408C               JUNCTION     45.00    45.00     0  00:15       0.486       0.486      -0.066
  80408D               JUNCTION     45.00    45.00     0  00:15       0.486       0.486      -0.046
  80408E               JUNCTION    499.93   499.93     0  03:00         5.4         5.4       0.303
  80608                JUNCTION      0.00    55.00     0  00:35           0       0.804       0.763
  80608A               JUNCTION      0.00    56.00     0  00:37           0       0.722       0.579
  80608B               JUNCTION      0.00    45.00     0  00:38           0       0.486       0.070
  80608C               JUNCTION      0.00    45.00     0  00:38           0       0.486       0.070
  80608D               JUNCTION      0.00    45.00     0  00:37           0       0.486      -0.068
  80608E               JUNCTION      0.00   499.89     0  01:30           0        5.38       0.540
  81009                JUNCTION     50.00    50.00     0  00:15        0.54        0.54      -0.190
  81009A               JUNCTION     50.00    50.00     0  00:15        0.54        0.54      -0.190
  81009B               JUNCTION     50.00    50.00     0  00:15        0.54        0.54      -0.190
  81009C               JUNCTION     50.00    50.00     0  00:15        0.54        0.54      -0.197
  81009D               JUNCTION     50.00    50.00     0  00:15        0.54        0.54      -0.190
  81009E               JUNCTION     50.00    50.00     0  00:15        0.54        0.54      -0.191
  81309                JUNCTION      0.00    50.63     0  00:19           0       0.541       0.084
  81309A               JUNCTION      0.00    50.63     0  00:19           0       0.541       0.084
  81309B               JUNCTION      0.00    50.64     0  00:19           0       0.541       0.086
  81309C               JUNCTION      0.00    50.19     0  00:18           0       0.541      -0.196
  81309D               JUNCTION      0.00    50.67     0  00:19           0       0.541       0.089
  81309E               JUNCTION      0.00    50.59     0  00:19           0       0.541      -0.034
  82308D               JUNCTION      0.00    17.08     0  00:31           0      0.0165       0.000
  82309                JUNCTION     40.00    95.00     0  01:31       0.432        1.23       0.713
  82309A               JUNCTION     40.00    96.00     0  01:29       0.432        1.15       0.483
  82309B               JUNCTION     40.00    85.00     0  01:42       0.432       0.918      -0.098
  82309C               JUNCTION     40.00   113.00     0  02:59       0.432       0.962      -0.103
  10208                OUTFALL       0.00   145.00     0  02:36           0        1.74       0.000
  10208A               OUTFALL       0.00   232.00     0  00:53           0        1.46       0.000
  10208B               OUTFALL       0.00   135.00     0  02:39           0        1.46       0.000
  10208C               OUTFALL       0.00   132.40     0  03:04           0        1.41       0.000
  10208D               OUTFALL       0.00   135.00     0  03:00           0        1.45       0.000
  10208E               OUTFALL       0.00   337.06     0  03:08           0        5.58       0.000
  82309D               STORAGE      40.00    99.08     0  00:37       0.432       0.934      -0.007
  WETWELL              STORAGE      40.00   539.91     0  01:30       0.432        5.79      11.907
  
  
  **********************
  Node Surcharge Summary
  **********************
  
  Surcharging occurs when water rises above the top of the highest conduit.
  ---------------------------------------------------------------------
                                               Max. Height   Min. Depth
                                   Hours       Above Crown    Below Rim
  Node                 Type      Surcharged         Meters       Meters
  ---------------------------------------------------------------------
  80408E               JUNCTION        2.69         23.000        0.000
  80608E               JUNCTION        4.05         16.187       10.113
  
  
  *********************
  Node Flooding Summary
  *********************
  
  Flooding refers to all water that overflows a node, whether it ponds or not.
  --------------------------------------------------------------------------
                                                             Total   Maximum
                                 Maximum   Time of Max       Flood    Ponded
                        Hours       Rate    Occurrence      Volume     Depth
  Node                 Flooded       LPS   days hr:min    10^6 ltr    Meters
  --------------------------------------------------------------------------
  80408E                  0.04     11.78      0  03:00       0.001     0.000
  
  
  **********************
  Storage Volume Summary
  **********************
  
  --------------------------------------------------------------------------------------------------
                         Average     Avg  Evap Exfil       Maximum     Max    Time of Max    Maximum
                          Volume    Pcnt  Pcnt  Pcnt        Volume    Pcnt     Occurrence    Outflow
  Storage Unit           1000 m3    Full  Loss  Loss       1000 m3    Full    days hr:min        LPS
  --------------------------------------------------------------------------------------------------
  82309D                   0.014       0     0     0         0.025       1       0  02:59      99.03
  WETWELL                  0.005       8     0     0         0.008      13       0  03:12     294.63
  
  
  ***********************
  Outfall Loading Summary
  ***********************
  
  -----------------------------------------------------------
                         Flow       Avg       Max       Total
                         Freq      Flow      Flow      Volume
  Outfall Node           Pcnt       LPS       LPS    10^6 ltr
  -----------------------------------------------------------
  10208                 95.83     83.85    145.00       1.736
  10208A                87.28     77.47    232.00       1.461
  10208B                95.56     70.54    135.00       1.456
  10208C                96.45     67.44    132.40       1.405
  10208D                94.80     70.93    135.00       1.453
  10208E                96.51    267.89    337.06       5.585
  -----------------------------------------------------------
  System                94.40    638.14   1026.61      13.095
  
  
  ********************
  Link Flow Summary
  ********************
  
  -----------------------------------------------------------------------------
                                 Maximum  Time of Max   Maximum    Max/    Max/
                                  |Flow|   Occurrence   |Veloc|    Full    Full
  Link                 Type          LPS  days hr:min     m/sec    Flow   Depth
  -----------------------------------------------------------------------------
  1030                 CONDUIT    145.00     0  02:36      0.93    0.03    0.25
  1030A                CONDUIT    232.00     0  00:53      0.18    0.04    0.74
  1030B                CONDUIT    135.00     0  02:39      0.91    0.03    0.25
  1030C                CONDUIT    132.40     0  03:04      0.91    0.03    0.24
  1030D                CONDUIT    135.00     0  03:00      0.91    0.03    0.25
  1030E                CONDUIT    337.06     0  03:08      1.14    0.06    0.35
  1570                 CONDUIT     50.16     0  00:40      1.00    0.09    0.26
  1570A                CONDUIT     50.16     0  00:40      1.00    0.09    0.28
  1570B                CONDUIT     50.15     0  00:40      1.02    0.09    0.26
  1570C                CONDUIT     22.00     0  00:16      1.76    0.00    0.66
  1570D                CONDUIT     50.12     0  00:41      1.14    0.09    0.26
  1570E                CONDUIT    100.00     0  02:05      1.29    0.18    0.37
  1600                 CONDUIT     95.00     0  02:29      1.50    0.14    0.28
  1600A                CONDUIT     96.00     0  02:35      1.50    0.14    0.30
  1600B                CONDUIT     85.00     0  02:33      1.42    0.13    0.27
  1600C                CONDUIT    111.83     0  03:01      1.70    0.17    0.28
  1600D                CONDUIT     85.00     0  03:00      1.41    0.13    0.27
  1600E                CONDUIT    243.78     0  03:15      2.24    0.36    0.41
  1602                 CONDUIT     95.00     0  02:29      1.21    0.48    0.42
  1602A                CONDUIT     96.00     0  02:35      1.21    0.48    0.42
  1602B                CONDUIT     85.00     0  02:33      1.18    0.43    0.40
  1602C                CONDUIT    112.17     0  03:00      1.25    0.56    0.47
  1602D                CONDUIT     85.00     0  02:59      1.18    0.43    0.40
  1602E                CONDUIT    244.63     0  03:14      1.55    1.23    0.75
  1630                 CONDUIT    145.02     0  00:48      1.45    0.01    0.23
  1630A                CONDUIT    163.40     0  00:30      1.89    0.02    0.34
  1630B                CONDUIT    135.01     0  00:50      1.43    0.01    0.23
  1630C                CONDUIT    133.80     0  03:01      1.40    0.01    0.23
  1630D                CONDUIT    135.00     0  03:00      1.40    0.01    0.23
  1630E                CONDUIT    338.47     0  03:05      1.67    0.03    0.32
  8040                 CONDUIT     55.00     0  00:35      1.93    0.16    0.30
  8040A                CONDUIT     56.00     0  00:37      1.95    0.17    0.30
  8040B                CONDUIT     45.00     0  00:38      1.81    0.13    0.28
  8040C                CONDUIT     45.00     0  00:38      1.81    0.13    0.28
  8040D                CONDUIT     45.00     0  00:37      1.86    0.13    0.25
  8040E                CONDUIT    499.89     0  01:30      3.98    1.48    1.00
  8060                 CONDUIT     55.00     0  01:31      1.60    0.22    0.32
  8060A                CONDUIT     56.00     0  01:29      1.61    0.22    0.32
  8060B                CONDUIT     45.00     0  01:42      1.36    0.21    0.31
  8060C                CONDUIT     45.00     0  01:42      1.36    0.21    0.31
  8060D                CONDUIT     45.00     0  01:02      1.56    0.15    0.44
  8060E                CONDUIT    499.91     0  01:30      3.98    1.63    1.00
  8100                 CONDUIT     50.63     0  00:19      1.68    0.14    0.26
  8100A                CONDUIT     50.63     0  00:19      1.68    0.14    0.26
  8100B                CONDUIT     50.64     0  00:19      1.68    0.14    0.26
  8100C                CONDUIT     50.19     0  00:18      1.68    0.14    0.27
  8100D                CONDUIT     50.67     0  00:19      1.68    0.14    0.26
  8100E                CONDUIT     50.59     0  00:19      1.68    0.14    0.26
  8130                 CONDUIT     50.70     0  00:30      1.69    0.16    0.26
  8130A                CONDUIT     50.71     0  00:30      1.69    0.16    0.26
  8130B                CONDUIT     50.67     0  00:30      1.68    0.16    0.26
  8130C                CONDUIT     53.97     0  00:24      1.87    0.17    0.64
  8130D                CONDUIT     50.54     0  00:30      1.65    0.16    0.26
  8130E                CONDUIT     51.57     0  02:49      1.71    0.16    0.31
  PUMP1                PUMP        50.00     0  01:36              0.25
  OR1@82309D-82308D    ORIFICE     20.03     0  03:06                      0.13
  WEIR1@82309C-15009C  WEIR        28.00     0  02:59                      0.00
  OR1@82309B-15009B    DUMMY        0.00     0  00:00
  
  
  ***************************
  Flow Classification Summary
  ***************************
  
  -------------------------------------------------------------------------------------
                      Adjusted    ---------- Fraction of Time in Flow Class ---------- 
                       /Actual         Up    Down  Sub   Sup   Up    Down  Norm  Inlet 
  Conduit               Length    Dry  Dry   Dry   Crit  Crit  Crit  Crit  Ltd   Ctrl  
  -------------------------------------------------------------------------------------
  1030                    1.00   0.03  0.00  0.00  0.97  0.00  0.00  0.00  0.00  0.00
  1030A                   1.00   0.00  0.00  0.00  1.00  0.00  0.00  0.00  0.00  0.00
  1030B                   1.00   0.03  0.00  0.00  0.97  0.00  0.00  0.00  0.00  0.00
  1030C                   1.00   0.03  0.00  0.00  0.97  0.00  0.00  0.00  0.00  0.00
  1030D                   1.00   0.04  0.00  0.00  0.96  0.00  0.00  0.00  0.00  0.00
  1030E                   1.00   0.02  0.00  0.00  0.98  0.00  0.00  0.00  0.00  0.00
  1570                    1.00   0.01  0.00  0.00  0.98  0.01  0.00  0.00  0.97  0.00
  1570A                   1.00   0.01  0.00  0.00  0.98  0.01  0.00  0.00  0.97  0.00
  1570B                   1.00   0.01  0.00  0.00  0.52  0.47  0.00  0.00  0.96  0.00
  1570C                   9.83   0.01  0.00  0.00  0.95  0.04  0.00  0.00  0.03  0.00
  1570D                   1.00   0.01  0.00  0.00  0.49  0.50  0.00  0.00  0.95  0.00
  1570E                   1.00   0.01  0.00  0.00  0.87  0.12  0.00  0.00  0.98  0.00
  1600                    1.00   0.00  0.00  0.00  0.01  0.99  0.00  0.00  0.95  0.00
  1600A                   1.00   0.00  0.00  0.00  0.06  0.94  0.00  0.00  0.95  0.00
  1600B                   1.00   0.00  0.00  0.00  0.45  0.54  0.00  0.00  0.95  0.00
  1600C                   1.00   0.00  0.00  0.00  0.45  0.54  0.00  0.00  0.97  0.00
  1600D                   1.00   0.01  0.00  0.00  0.42  0.57  0.00  0.00  0.94  0.00
  1600E                   1.00   0.00  0.00  0.00  0.01  0.99  0.00  0.00  0.11  0.00
  1602                    1.00   0.00  0.00  0.00  0.94  0.06  0.00  0.00  0.00  0.00
  1602A                   1.00   0.00  0.00  0.00  0.94  0.06  0.00  0.00  0.00  0.00
  1602B                   1.00   0.00  0.00  0.00  0.93  0.07  0.00  0.00  0.00  0.00
  1602C                   1.00   0.00  0.00  0.00  0.93  0.07  0.00  0.00  0.00  0.00
  1602D                   1.00   0.00  0.00  0.00  0.91  0.09  0.00  0.00  0.00  0.00
  1602E                   1.00   0.00  0.00  0.00  0.97  0.03  0.00  0.00  0.00  0.00
  1630                    1.00   0.01  0.00  0.00  0.48  0.51  0.00  0.00  0.93  0.00
  1630A                   1.00   0.01  0.00  0.00  0.92  0.07  0.00  0.00  0.92  0.00
  1630B                   1.00   0.01  0.00  0.00  0.48  0.51  0.00  0.00  0.93  0.00
  1630C                   1.00   0.01  0.00  0.00  0.48  0.51  0.00  0.00  0.94  0.00
  1630D                   1.00   0.02  0.00  0.00  0.48  0.50  0.00  0.00  0.92  0.00
  1630E                   1.00   0.01  0.00  0.00  0.01  0.98  0.00  0.00  0.94  0.00
  8040                    1.00   0.00  0.00  0.00  0.00  1.00  0.00  0.00  0.97  0.00
  8040A                   1.00   0.00  0.00  0.00  0.00  1.00  0.00  0.00  0.97  0.00
  8040B                   1.00   0.00  0.00  0.00  0.46  0.54  0.00  0.00  0.96  0.00
  8040C                   1.00   0.00  0.00  0.00  0.46  0.54  0.00  0.00  0.96  0.00
  8040D                   1.00   0.00  0.00  0.00  0.46  0.54  0.00  0.00  0.96  0.00
  8040E                   1.00   0.00  0.00  0.00  0.66  0.34  0.00  0.00  0.34  0.00
  8060                    1.00   0.00  0.00  0.00  0.00  0.00  0.00  1.00  0.00  0.00
  8060A                   1.00   0.00  0.00  0.00  0.00  0.00  0.00  1.00  0.00  0.00
  8060B                   1.00   0.00  0.00  0.00  0.00  0.00  0.00  1.00  0.00  0.00
  8060C                   1.00   0.00  0.00  0.00  0.00  0.00  0.00  1.00  0.00  0.00
  8060D                   1.00   0.00  0.00  0.00  0.94  0.06  0.00  0.00  0.97  0.00
  8060E                   1.00   0.00  0.00  0.00  0.94  0.06  0.00  0.00  0.13  0.00
  8100                    1.00   0.00  0.00  0.00  0.46  0.54  0.00  0.00  0.95  0.00
  8100A                   1.00   0.00  0.00  0.00  0.46  0.54  0.00  0.00  0.95  0.00
  8100B                   1.00   0.00  0.00  0.00  0.46  0.54  0.00  0.00  0.95  0.00
  8100C                   1.00   0.00  0.00  0.00  0.46  0.54  0.00  0.00  0.95  0.00
  8100D                   1.00   0.00  0.00  0.00  0.46  0.54  0.00  0.00  0.95  0.00
  8100E                   1.00   0.00  0.00  0.00  0.46  0.54  0.00  0.00  0.95  0.00
  8130                    1.00   0.00  0.00  0.00  0.41  0.58  0.00  0.00  0.47  0.00
  8130A                   1.00   0.00  0.00  0.00  0.41  0.58  0.00  0.00  0.47  0.00
  8130B                   1.00   0.00  0.00  0.00  0.41  0.59  0.00  0.00  0.47  0.00
  8130C                   1.00   0.00  0.00  0.00  0.93  0.07  0.00  0.00  0.93  0.00
  8130D                   1.00   0.00  0.00  0.00  0.41  0.58  0.00  0.00  0.47  0.00
  8130E                   1.00   0.00  0.00  0.00  0.47  0.52  0.00  0.00  0.63  0.00
  
  
  *************************
  Conduit Surcharge Summary
  *************************
  
  ----------------------------------------------------------------------------
                                                           Hours        Hours 
                         --------- Hours Full --------   Above Full   Capacity
  Conduit                Both Ends  Upstream  Dnstream   Normal Flow   Limited
  ----------------------------------------------------------------------------
  1030A                       0.01      0.01      6.00      0.01         0.01
  1570C                       0.01      5.22      0.01      0.01         0.01
  1602E                       0.01      5.72      0.01      5.41         0.01
  8040E                       2.68      2.68      4.05      1.93         1.91
  8060E                       4.05      4.05      5.75      2.26         2.22
  8130C                       0.01      0.01      5.31      0.01         0.01
  
  
  ***************
  Pumping Summary
  ***************
  
  ---------------------------------------------------------------------------------------------------------
                                                  Min       Avg       Max     Total     Power    % Time Off
                        Percent   Number of      Flow      Flow      Flow    Volume     Usage    Pump Curve
  Pump                 Utilized   Start-Ups       LPS       LPS       LPS  10^6 ltr     Kw-hr    Low   High
  ---------------------------------------------------------------------------------------------------------
  PUMP1                   50.40           3      0.00     50.00     50.00     0.544     10.65    0.0  100.0
  

  Analysis begun on:  Wed Jan 02 04:53:09 2019
  Analysis ended on:  Wed Jan 02 04:53:16 2019
  Total elapsed time: 00:00:07