
  EPA STORM WATER MANAGEMENT MODEL - VERSION 5.1 (Build 5.1.012)
  --------------------------------------------------------------

  WARNING 09: time series interval greater than recording interval for Rain Gage RG1
  WARNING 01: wet weather time step reduced to recording interval for Rain Gage RG1
  WARNING 07: routing time step reduced to the wet weather time step 
  
  *********************************************************
  NOTE: The summary statistics displayed in this report are
  based on results found at every computational time step,  
  not just on results from each reporting time step.
  *********************************************************
  
  ****************
  Analysis Options
  ****************
  Flow Units ............... CMS
  Process Models:
    Rainfall/Runoff ........ YES
    RDII ................... NO
    Snowmelt ............... NO
    Groundwater ............ NO
    Flow Routing ........... YES
    Ponding Allowed ........ NO
    Water Quality .......... NO
  Infiltration Method ...... GREEN_AMPT
  Flow Routing Method ...... KINWAVE
  Starting Date ............ 01/01/1917 00:00:00
  Ending Date .............. 01/01/1925 00:00:00
  Antecedent Dry Days ...... 0.0
  Report Time Step ......... 12:00:00
  Wet Time Step ............ 00:01:00
  Dry Time Step ............ 01:00:00
  Routing Time Step ........ 60.00 sec
  
  
  *********************
  Control Actions Taken
  *********************
   07/16/1917: 08:11:00 Link W_spruce setting changed to   0.85 by Control LowL
   01/12/1918: 07:58:00 Link W_spruce setting changed to   1.00 by Control HighL
   08/17/1918: 22:25:00 Link W_spruce setting changed to   0.85 by Control LowL
   10/07/1918: 19:19:00 Link W_spruce setting changed to   1.00 by Control HighL
   02/26/1919: 08:36:00 Link W_spruce setting changed to   0.85 by Control LowL
   03/15/1919: 09:14:00 Link W_spruce setting changed to   1.00 by Control HighL
   07/04/1919: 18:32:00 Link W_spruce setting changed to   0.85 by Control LowL
   11/11/1919: 07:01:00 Link W_spruce setting changed to   1.00 by Control HighL
   06/05/1920: 09:11:00 Link W_spruce setting changed to   0.85 by Control LowL
   08/20/1920: 16:46:00 Link PMusquash setting changed to   1.00 by Control PSquashON
   10/20/1920: 21:28:00 Link PMusquash setting changed to   0.00 by Control PSquashOFF
   12/03/1920: 23:05:00 Link W_spruce setting changed to   1.00 by Control HighL
   06/03/1921: 07:25:00 Link W_spruce setting changed to   0.85 by Control LowL
   08/06/1921: 10:42:00 Link PMusquash setting changed to   1.00 by Control PSquashON
   10/30/1921: 20:10:00 Link PMusquash setting changed to   0.00 by Control PSquashOFF
   12/10/1921: 16:25:00 Link W_spruce setting changed to   1.00 by Control HighL
   06/08/1922: 04:26:00 Link W_spruce setting changed to   0.85 by Control LowL
   08/24/1922: 00:24:00 Link PMusquash setting changed to   1.00 by Control PSquashON
   09/06/1922: 12:46:00 Link PMusquash setting changed to   0.00 by Control PSquashOFF
   01/08/1923: 12:06:00 Link W_spruce setting changed to   1.00 by Control HighL
   06/06/1923: 09:08:00 Link W_spruce setting changed to   0.85 by Control LowL
   08/11/1923: 12:21:00 Link PMusquash setting changed to   1.00 by Control PSquashON
   11/01/1923: 01:43:00 Link PMusquash setting changed to   0.00 by Control PSquashOFF
   12/07/1923: 18:20:00 Link W_spruce setting changed to   1.00 by Control HighL
   06/10/1924: 06:27:00 Link W_spruce setting changed to   0.85 by Control LowL
   08/15/1924: 15:53:00 Link PMusquash setting changed to   1.00 by Control PSquashON
   10/12/1924: 05:10:00 Link PMusquash setting changed to   0.00 by Control PSquashOFF
   12/23/1924: 19:10:00 Link W_spruce setting changed to   1.00 by Control HighL

  
  **************************        Volume         Depth
  Runoff Quantity Continuity     hectare-m            mm
  **************************     ---------       -------
  Total Precipitation ......         0.000         0.000
  Evaporation Loss .........         0.000         0.000
  Infiltration Loss ........         0.000         0.000
  Surface Runoff ...........         0.000         0.000
  Final Storage ............         0.000         0.000
  Continuity Error (%) .....         0.000
  
  
  **************************        Volume        Volume
  Flow Routing Continuity        hectare-m      10^6 ltr
  **************************     ---------     ---------
  Dry Weather Inflow .......    259827.509   2598302.177
  Wet Weather Inflow .......         0.000         0.000
  Groundwater Inflow .......         0.000         0.000
  RDII Inflow ..............         0.000         0.000
  External Inflow ..........      8950.392     89504.853
  External Outflow .........    257284.654   2572873.365
  Flooding Loss ............         0.000         0.000
  Evaporation Loss .........     10824.197    108243.100
  Exfiltration Loss ........         0.000         0.000
  Initial Stored Volume ....      8073.192     80732.761
  Final Stored Volume ......      8742.106     87421.976
  Continuity Error (%) .....         0.000
  
  
  ********************************
  Highest Flow Instability Indexes
  ********************************
  All links are stable.
  
  
  *************************
  Routing Time Step Summary
  *************************
  Minimum Time Step           :    60.00 sec
  Average Time Step           :    60.00 sec
  Maximum Time Step           :    60.00 sec
  Percent in Steady State     :     0.00
  Average Iterations per Step :     1.00
  Percent Not Converging      :     0.00
  
  
  ***************************
  Subcatchment Runoff Summary
  ***************************
  
  --------------------------------------------------------------------------------------------------------
                            Total      Total      Total      Total      Total       Total     Peak  Runoff
                           Precip      Runon       Evap      Infil     Runoff      Runoff   Runoff   Coeff
  Subcatchment                 mm         mm         mm         mm         mm    10^6 ltr      CMS
  --------------------------------------------------------------------------------------------------------
  S1                         0.00       0.00       0.00       0.00       0.00        0.00     0.00   0.000
  
  
  ******************
  Node Depth Summary
  ******************
  
  ---------------------------------------------------------------------------------
                                 Average  Maximum  Maximum  Time of Max    Reported
                                   Depth    Depth      HGL   Occurrence   Max Depth
  Node                 Type       Meters   Meters   Meters  days hr:min      Meters
  ---------------------------------------------------------------------------------
  J1                   JUNCTION     1.01     1.03     2.03  1155  00:00        1.03
  O4                   OUTFALL      1.01     1.03     0.03  1155  00:00        1.03
  O6                   OUTFALL      0.00     0.00     0.00     0  00:00        0.00
  Spruce_lake          STORAGE     16.53    17.29    61.79  2311  10:14       17.29
  Musquash             STORAGE      5.31     5.32     7.32  1155  00:00        5.32
  
  
  *******************
  Node Inflow Summary
  *******************
  
  -------------------------------------------------------------------------------------------------
                                  Maximum  Maximum                  Lateral       Total        Flow
                                  Lateral    Total  Time of Max      Inflow      Inflow     Balance
                                   Inflow   Inflow   Occurrence      Volume      Volume       Error
  Node                 Type           CMS      CMS  days hr:min    10^6 ltr    10^6 ltr     Percent
  -------------------------------------------------------------------------------------------------
  J1                   JUNCTION     0.000    9.698  1155  00:00           0   2.37e+006       0.000
  O4                   OUTFALL      0.000    9.698  1155  00:00           0   2.37e+006       0.000
  O6                   OUTFALL      0.000   17.653  2311  10:14           0   1.99e+005       0.000
  Spruce_lake          STORAGE     29.256   29.256  2310  01:01   1.63e+005   2.21e+005       0.001
  Musquash             STORAGE     10.000   10.000     0  00:01   2.52e+006   2.58e+006      -0.000
  
  
  *********************
  Node Flooding Summary
  *********************
  
  No nodes were flooded.
  
  
  **********************
  Storage Volume Summary
  **********************
  
  --------------------------------------------------------------------------------------------------
                         Average     Avg  Evap Exfil       Maximum     Max    Time of Max    Maximum
                          Volume    Pcnt  Pcnt  Pcnt        Volume    Pcnt     Occurrence    Outflow
  Storage Unit           1000 m3    Full  Loss  Loss       1000 m3    Full    days hr:min        CMS
  --------------------------------------------------------------------------------------------------
  Spruce_lake          21807.473      24     0     0     25829.212      29    2311  10:13     17.653
  Musquash             64409.737       3     4     0     64663.472       3    1155  00:00     11.300
  
  
  ***********************
  Outfall Loading Summary
  ***********************
  
  -----------------------------------------------------------
                         Flow       Avg       Max       Total
                         Freq      Flow      Flow      Volume
  Outfall Node           Pcnt       CMS       CMS    10^6 ltr
  -----------------------------------------------------------
  O4                   100.00     9.406     9.698 2374340.885
  O6                    53.98     1.457    17.653  198520.702
  -----------------------------------------------------------
  System                76.99    10.863    27.325 2572861.587
  
  
  ********************
  Link Flow Summary
  ********************
  
  -----------------------------------------------------------------------------
                                 Maximum  Time of Max   Maximum    Max/    Max/
                                  |Flow|   Occurrence   |Veloc|    Full    Full
  Link                 Type          CMS  days hr:min     m/sec    Flow   Depth
  -----------------------------------------------------------------------------
  C3                   CONDUIT     9.698  1155  00:00      1.86    0.02    0.21
  PMusquash            PUMP        1.300  1327  16:47              1.00
  OR2                  ORIFICE     3.064  1155  00:00                      0.00
  W_spruce             WEIR       17.653  2311  10:14                      0.00
  W_musquash           WEIR        6.634  1155  00:00                      0.00
  
  
  *************************
  Conduit Surcharge Summary
  *************************
  
  No conduits were surcharged.
  
  
  ***************
  Pumping Summary
  ***************
  
  ---------------------------------------------------------------------------------------------------------
                                                  Min       Avg       Max     Total     Power    % Time Off
                        Percent   Number of      Flow      Flow      Flow    Volume     Usage    Pump Curve
  Pump                 Utilized   Start-Ups       CMS       CMS       CMS  10^6 ltr     Kw-hr    Low   High
  ---------------------------------------------------------------------------------------------------------
  PMusquash               10.24           5      0.00      1.30      1.30 33604.378 4873555.45    0.0  100.0
  

  Analysis begun on:  Wed Jan 02 08:33:01 2019
  Analysis ended on:  Wed Jan 02 08:33:28 2019
  Total elapsed time: 00:00:27