
  EPA STORM WATER MANAGEMENT MODEL - VERSION 5.1 (Build 5.1.012)
  --------------------------------------------------------------

  
  ERROR 211: invalid number  at line 5918 of [XSECT] section:
  10032!_2D.1      RECT_OPEN    0.000000         7.250000   0.000000   0.000000  

  
  ERROR 211: invalid number  at line 5923 of [XSECT] section:
  20103!_2D.1      RECT_OPEN    0.000000         7.250000   0.000000   0.000000  

  
  ERROR 211: invalid number  at line 5924 of [XSECT] section:
  20104!_2D.1      RECT_OPEN    0.000000         7.250000   0.000000   0.000000  

  
  ERROR 211: invalid number  at line 5925 of [XSECT] section:
  20105!_2D.1      RECT_OPEN    0.000000         7.250000   0.000000   0.000000  

  
  ERROR 211: invalid number  at line 5926 of [XSECT] section:
  20106!_2D.1      RECT_OPEN    0.000000         7.250000   0.000000   0.000000  

  
  ERROR 211: invalid number  at line 5927 of [XSECT] section:
  20107!_2D.1      RECT_OPEN    0.000000         7.250000   0.000000   0.000000  

  
  ERROR 211: invalid number  at line 5928 of [XSECT] section:
  20108!_2D.1      RECT_OPEN    0.000000         7.250000   0.000000   0.000000  

  
  ERROR 211: invalid number  at line 5929 of [XSECT] section:
  20109!_2D.1      RECT_OPEN    0.000000         7.250000   0.000000   0.000000  

  
  ERROR 211: invalid number  at line 5930 of [XSECT] section:
  20110!_2D.1      RECT_OPEN    0.000000         7.250000   0.000000   0.000000  

  
  ERROR 211: invalid number  at line 5931 of [XSECT] section:
  20111!_2D.1      RECT_OPEN    0.000000         7.250000   0.000000   0.000000  

  
  ERROR 211: invalid number  at line 5932 of [XSECT] section:
  20112!_2D.1      RECT_OPEN    0.000000         7.250000   0.000000   0.000000  

  
  ERROR 211: invalid number  at line 5933 of [XSECT] section:
  20113!_2D.1      RECT_OPEN    0.000000         7.250000   0.000000   0.000000  

  
  ERROR 211: invalid number  at line 5934 of [XSECT] section:
  20114!_2D.1      RECT_OPEN    0.000000         7.250000   0.000000   0.000000  

  
  ERROR 211: invalid number  at line 5935 of [XSECT] section:
  20115!_2D.1      RECT_OPEN    0.000000         7.250000   0.000000   0.000000  

  
  ERROR 211: invalid number  at line 5936 of [XSECT] section:
  20119!_2D.1      RECT_OPEN    0.000000         7.250000   0.000000   0.000000  

  
  ERROR 211: invalid number  at line 5937 of [XSECT] section:
  20120!_2D.1      RECT_OPEN    0.000000         7.250000   0.000000   0.000000  

  
  ERROR 211: invalid number  at line 5938 of [XSECT] section:
  20121!_2D.1      RECT_OPEN    0.000000         7.250000   0.000000   0.000000  

  
  ERROR 211: invalid number  at line 5939 of [XSECT] section:
  20122!_2D.1      RECT_OPEN    0.000000         7.250000   0.000000   0.000000  

  
  ERROR 211: invalid number  at line 5940 of [XSECT] section:
  20123!_2D.1      RECT_OPEN    0.000000         7.250000   0.000000   0.000000  

  
  ERROR 211: invalid number  at line 5941 of [XSECT] section:
  20124!_2D.1      RECT_OPEN    0.000000         7.250000   0.000000   0.000000  

  
  ERROR 211: invalid number  at line 5942 of [XSECT] section:
  20125!_2D.1      RECT_OPEN    0.000000         7.250000   0.000000   0.000000  

  
  ERROR 211: invalid number  at line 5943 of [XSECT] section:
  20126!_2D.1      RECT_OPEN    0.000000         7.250000   0.000000   0.000000  

  
  ERROR 211: invalid number  at line 5944 of [XSECT] section:
  20127!_2D.1      RECT_OPEN    0.000000         7.250000   0.000000   0.000000  

  
  ERROR 211: invalid number  at line 5945 of [XSECT] section:
  20128!_2D.1      RECT_OPEN    0.000000         7.250000   0.000000   0.000000  

  
  ERROR 211: invalid number  at line 5946 of [XSECT] section:
  20129!_2D.1      RECT_OPEN    0.000000         7.250000   0.000000   0.000000  

  
  ERROR 211: invalid number  at line 5960 of [XSECT] section:
  6198854!_2D.1    RECT_OPEN    0.000000         7.250000   0.000000   0.000000  

  
  ERROR 211: invalid number  at line 5961 of [XSECT] section:
  6198859!_2D.1    RECT_OPEN    0.000000         7.250000   0.000000   0.000000  

  
  ERROR 211: invalid number  at line 5962 of [XSECT] section:
  6198860!_2D.1    RECT_OPEN    0.000000         7.250000   0.000000   0.000000  

  
  ERROR 211: invalid number  at line 5967 of [XSECT] section:
  6198894!_2D.1    RECT_OPEN    0.000000         7.250000   0.000000   0.000000  

  
  ERROR 211: invalid number  at line 5987 of [XSECT] section:
  C013_2D.1        RECT_OPEN    0.000000         7.250000   0.000000   0.000000  

  
  ERROR 211: invalid number  at line 5988 of [XSECT] section:
  C014_2D.1        RECT_OPEN    0.000000         7.250000   0.000000   0.000000  

  
  ERROR 211: invalid number  at line 5989 of [XSECT] section:
  C019_2D.1        RECT_OPEN    0.000000         7.250000   0.000000   0.000000  

  
  ERROR 211: invalid number  at line 5990 of [XSECT] section:
  C023_2D.1        RECT_OPEN    0.000000         7.250000   0.000000   0.000000  

  
  ERROR 211: invalid number  at line 5991 of [XSECT] section:
  C024_2D.1        RECT_OPEN    0.000000         7.250000   0.000000   0.000000  

  
  ERROR 211: invalid number  at line 5995 of [XSECT] section:
  C036A_2D.1       RECT_OPEN    0.000000         7.250000   0.000000   0.000000  

  
  ERROR 211: invalid number  at line 5997 of [XSECT] section:
  C038A_2D.1       RECT_OPEN    0.000000         7.250000   0.000000   0.000000  

  
  ERROR 211: invalid number  at line 5998 of [XSECT] section:
  C038B_2D.1       RECT_OPEN    0.000000         7.250000   0.000000   0.000000  

  
  ERROR 211: invalid number  at line 6000 of [XSECT] section:
  C044_2D.1        RECT_OPEN    0.000000         7.250000   0.000000   0.000000  

  
  ERROR 211: invalid number  at line 6001 of [XSECT] section:
  C046_2D.1        RECT_OPEN    0.000000         7.250000   0.000000   0.000000  

  
  ERROR 211: invalid number  at line 6020 of [XSECT] section:
  C092B_2D.1       RECT_OPEN    0.000000         7.250000   0.000000   0.000000  

  
  ERROR 227: Transect W1400105_sta0213.1 has no Manning's N.
  
  ERROR 209: undefined object Mathewson_Pond at line 7301 of [CONTROL] section:
  IF NODE Mathewson_Pond HEAD >= 56.600000

  
  ERROR 209: undefined object Mathewson_Pond.2 at line 7302 of [CONTROL] section:
  THEN PUMP Mathewson_Pond.2 STATUS = ON

  
  ERROR 209: undefined object Mathewson_Pond at line 7304 of [CONTROL] section:
  IF NODE Mathewson_Pond HEAD <= 54.610000

  
  ERROR 209: undefined object Mathewson_Pond.2 at line 7305 of [CONTROL] section:
  THEN PUMP Mathewson_Pond.2 STATUS = OFF

  
  ERROR 209: undefined object Mathewson_Pond at line 7307 of [CONTROL] section:
  IF NODE Mathewson_Pond HEAD >= 57.600000

  
  ERROR 209: undefined object Mathewson_Pond.3 at line 7308 of [CONTROL] section:
  THEN PUMP Mathewson_Pond.3 STATUS = ON

  
  ERROR 209: undefined object Mathewson_Pond at line 7310 of [CONTROL] section:
  IF NODE Mathewson_Pond HEAD <= 54.610000

  
  ERROR 209: undefined object Mathewson_Pond.3 at line 7311 of [CONTROL] section:
  THEN PUMP Mathewson_Pond.3 STATUS = OFF

  
  ERROR 209: undefined object Mathewson_Pond at line 7313 of [CONTROL] section:
  IF NODE Mathewson_Pond HEAD >= 58.600000

  
  ERROR 209: undefined object Mathewson_Pond.4 at line 7314 of [CONTROL] section:
  THEN PUMP Mathewson_Pond.4 STATUS = ON

  
  ERROR 209: undefined object Mathewson_Pond at line 7316 of [CONTROL] section:
  IF NODE Mathewson_Pond HEAD <= 54.610000

  
  ERROR 209: undefined object Mathewson_Pond.4 at line 7317 of [CONTROL] section:
  THEN PUMP Mathewson_Pond.4 STATUS = OFF

  
  ERROR 209: undefined object Mathewson_Pond at line 7319 of [CONTROL] section:
  IF NODE Mathewson_Pond HEAD >= 55.600000

  
  ERROR 209: undefined object Mathewson_Pond.1 at line 7320 of [CONTROL] section:
  THEN PUMP Mathewson_Pond.1 STATUS = ON

  
  ERROR 209: undefined object Mathewson_Pond at line 7322 of [CONTROL] section:
  IF NODE Mathewson_Pond HEAD <= 53.610000

  
  ERROR 209: undefined object Mathewson_Pond.1 at line 7323 of [CONTROL] section:
  THEN PUMP Mathewson_Pond.1 STATUS = OFF


  Analysis begun on:  Wed Jan 02 04:53:18 2019
  Analysis ended on:  Wed Jan 02 04:53:18 2019
  Total elapsed time: < 1 sec