
  EPA STORM WATER MANAGEMENT MODEL - VERSION 5.1 (Build 5.1.012)
  --------------------------------------------------------------

   FT SMITH STORMWATER MANAGEMENT PLAN - OAK PARK - 6/2/92 
  
  
  *************
  Element Count
  *************
  Number of rain gages ...... 1
  Number of subcatchments ... 15
  Number of nodes ........... 40
  Number of links ........... 51
  Number of pollutants ...... 0
  Number of land uses ....... 0
  
  
  ****************
  Raingage Summary
  ****************
                                                      Data       Recording
  Name                 Data Source                    Type       Interval 
  ------------------------------------------------------------------------
  Gauge1               RN#1                           INTENSITY   15 min.
  
  
  ********************
  Subcatchment Summary
  ********************
  Name                       Area     Width   %Imperv    %Slope Rain Gage            Outlet              
  -----------------------------------------------------------------------------------------------------------
  3n#1                      99.00   3727.00     28.30    3.4000 Gauge1               3n                  
  3n#2                      84.00   3496.00     74.60    7.3000 Gauge1               3n                  
  1008n#1                   32.00    679.00     72.30    2.8000 Gauge1               1008n               
  1011n#1                   40.00   2250.00     78.70    3.2000 Gauge1               1011n               
  1020n#1                   28.00   2104.00     40.40    2.9000 Gauge1               1020n               
  1025n#1                   27.00   1149.00     46.20    2.7000 Gauge1               1025n               
  1025n#2                   83.00   1861.00     56.60    1.5000 Gauge1               1025n               
  1080n#1                   42.00   1013.00     81.00    1.2000 Gauge1               1080n               
  1031n#1                  131.00   2807.00     30.50    1.1000 Gauge1               1031n               
  1040n#1                   60.00   1753.00     26.50    1.5000 Gauge1               1040n               
  1047n#1                   78.00   2300.00     23.00    0.9000 Gauge1               1047n               
  1052n#1                  149.00   3445.00     38.70    1.9000 Gauge1               1052n               
  1063n#1                   60.00   1958.00     47.90    2.5000 Gauge1               1063n               
  1070n#1                   32.00    864.00     81.00    2.4000 Gauge1               1070n               
  1083n#1                   39.00    987.00     12.00    1.3000 Gauge1               1083n               
  
  
  ************
  Node Summary
  ************
                                           Invert      Max.    Ponded    External
  Name                 Type                 Elev.     Depth      Area    Inflow  
  -------------------------------------------------------------------------------
  1000n                JUNCTION            398.40    101.60       0.0
  1001n                JUNCTION            398.70    101.30       0.0
  3n                   JUNCTION            406.00     94.00       0.0
  1005n                JUNCTION            406.60     93.40       0.0
  1006n                JUNCTION            407.00     93.00       0.0
  1008n                JUNCTION            412.60     87.40       0.0
  1009n                JUNCTION            413.20     86.80       0.0
  1011n                JUNCTION            413.50     86.50       0.0
  1012n                JUNCTION            414.40     85.60       0.0
  1014n                JUNCTION            419.00     81.00       0.0
  1015n                JUNCTION            419.10     80.90       0.0
  1017n                JUNCTION            419.90     80.10       0.0
  1018n                JUNCTION            420.00     80.00       0.0
  1020n                JUNCTION            427.00     73.00       0.0
  1022n                JUNCTION            429.00     71.00       0.0
  1023n                JUNCTION            429.20     70.80       0.0
  1025n                JUNCTION            430.20     69.80       0.0
  1026n                JUNCTION            431.90     68.10       0.0
  1080n                JUNCTION            436.10     63.90       0.0
  1028n                JUNCTION            435.90     64.10       0.0
  1029n                JUNCTION            436.30     63.70       0.0
  1031n                JUNCTION            442.50     57.50       0.0
  1040n                JUNCTION            414.00     86.00       0.0
  1042n                JUNCTION            421.00     79.00       0.0
  1044n                JUNCTION            425.40     74.60       0.0
  1045n                JUNCTION            425.50     74.50       0.0
  1047n                JUNCTION            432.00     68.00       0.0
  1050n                JUNCTION            420.00     80.00       0.0
  1052n                JUNCTION            433.70     66.30       0.0
  1060n                JUNCTION            419.60     80.40       0.0
  1061n                JUNCTION            419.80     80.20       0.0
  1063n                JUNCTION            430.00     70.00       0.0
  1070n                JUNCTION            428.00     72.00       0.0
  1082n                JUNCTION            441.70     58.30       0.0
  1083n                JUNCTION            443.80     56.20       0.0
  1086n                JUNCTION            435.50     64.50       0.0
  1088n                JUNCTION            435.00     65.00       0.0
  1089n                JUNCTION            434.00     66.00       0.0
  1085n                STORAGE             435.80     64.20       0.0
  999n                 OUTFALL             395.00     23.30       0.0
  
  
  ************
  Link Summary
  ************
  Name             From Node        To Node          Type            Length    %Slope Roughness
  ---------------------------------------------------------------------------------------------
  1000             1000n            999n             CONDUIT          840.0    0.4048    0.0400
  1001             1001n            1000n            CONDUIT          241.0    0.1245    0.0242
  10011            1001n            1000n            CONDUIT          148.0    0.0676    0.0205
  1003             3n               1001n            CONDUIT         1450.0    0.5035    0.0400
  1005             1005n            3n               CONDUIT         1350.0    0.0444    0.0400
  1006             1006n            1005n            CONDUIT          209.0    0.1914    0.0259
  10061            1006n            1005n            CONDUIT          148.0    0.0676    0.0099
  1008             1008n            1006n            CONDUIT         1200.0    0.4667    0.0400
  1009             1009n            1008n            CONDUIT          270.0    0.2222    0.0282
  1011             1011n            1009n            CONDUIT          530.0    0.0566    0.0400
  1012             1012n            1011n            CONDUIT          241.0    0.3734    0.0245
  1014             1014n            1012n            CONDUIT          970.0    0.4742    0.0400
  1015             1015n            1014n            CONDUIT          171.0    0.0585    0.0216
  10151            1015n            1014n            CONDUIT          191.0    0.0524    0.0081
  1017             1017n            1015n            CONDUIT          390.0    0.2051    0.0400
  1018             1018n            1017n            CONDUIT          230.0    0.0435    0.0170
  10181            1018n            1017n            CONDUIT          171.0    0.0585    0.0073
  1020             1020n            1018n            CONDUIT          960.0    0.7292    0.0400
  1022             1022n            1020n            CONDUIT          810.0    0.2469    0.0400
  1023             1023n            1022n            CONDUIT          226.0    0.0885    0.0265
  1025             1025n            1023n            CONDUIT          304.0    0.3289    0.0400
  1026             1026n            1025n            CONDUIT          171.0    0.9942    0.0184
  10261            1026n            1025n            CONDUIT          191.0    0.8901    0.0197
  10262            1026n            1080n            CONDUIT          700.0    0.0143    0.0240
  1028             1028n            1026n            CONDUIT          740.0    0.5405    0.0400
  1029             1029n            1028n            CONDUIT          176.0    0.2273    0.0183
  10291            1029n            1028n            CONDUIT          121.0    0.3306    0.0195
  1031             1031n            1029n            CONDUIT          640.0    0.9688    0.0400
  1040             1040n            1006n            CONDUIT          900.0    0.7778    0.0400
  1042             1042n            1040n            CONDUIT          950.0    0.7369    0.0400
  1044             1044n            1042n            CONDUIT          850.0    0.5177    0.0400
  1045             1045n            1044n            CONDUIT          171.0    0.0585    0.0183
  10451            1045n            1044n            CONDUIT          121.0    0.0826    0.0119
  1047             1047n            1045n            CONDUIT          650.0    1.0001    0.0400
  1050             1050n            1040n            CONDUIT          850.0    0.7059    0.0400
  1052             1052n            1050n            CONDUIT          740.0    1.8517    0.0400
  1060             1060n            1009n            CONDUIT          510.0    1.2550    0.0400
  1061             1061n            1060n            CONDUIT          160.0    0.1250    0.0165
  10611            1061n            1060n            CONDUIT          121.0    0.1653    0.0133
  1063             1063n            1061n            CONDUIT          560.0    1.8217    0.0400
  1070             1070n            1015n            CONDUIT          590.0    1.5086    0.0400
  1080             1080n            1020n            CONDUIT          171.0    5.3292    0.0178
  10801            1080n            1085n            CONDUIT          460.0    0.5000    0.0400
  10802            1080n            1022n            CONDUIT          171.0    4.1556    0.0105
  1082             1082n            1080n            CONDUIT          630.0    0.8889    0.0400
  1083             1083n            1082n            CONDUIT          244.0    0.8607    0.0294
  10831            1083n            1082n            CONDUIT          244.0    0.8607    0.0240
  1085             1085n            1086n            CONDUIT          135.0    0.2222    0.0262
  1086             1086n            1088n            CONDUIT          460.0    0.1087    0.0400
  1088             1088n            1089n            CONDUIT          171.0    0.5848    0.0285
  1089             1089n            1018n            CONDUIT          610.0    2.2957    0.0400
  
  
  *********************
  Cross Section Summary
  *********************
                                        Full     Full     Hyd.     Max.   No. of     Full
  Conduit          Shape               Depth     Area     Rad.    Width  Barrels     Flow
  ---------------------------------------------------------------------------------------
  1000             NS_1000             23.30 10812.50     7.07   970.00        1 94155.29
  1001             RECT_CLOSED          8.00    64.00     2.00     8.00        1   220.10
  10011            TRAPEZOIDAL          3.00   750.00     1.87   400.00        1  2148.59
  1003             NS_1003             23.60 13104.00     5.70  1090.00        1 110281.03
  1005             NS_1005             23.70  9917.00     6.25   740.00        1 26353.63
  1006             RECT_CLOSED          6.00   102.00     2.22    17.00        1   435.35
  10061            TRAPEZOIDAL          3.00   750.00     1.87   400.00        1  4449.09
  1008             NS_1008             30.20  9601.00     6.05   800.00        1 80895.76
  1009             CIRCULAR            10.00    78.54     2.50    10.00        1   359.37
  1011             NS_1011             19.00  3404.50     4.36   425.00        1  8033.45
  1012             CIRCULAR             8.00    50.27     2.00     8.00        1   295.75
  1014             NS_1014             17.30  2346.25     3.33   450.00        1 13386.91
  1015             RECT_CLOSED          4.00    40.00     1.43    10.00        1    84.41
  10151            TRAPEZOIDAL          5.00  3000.00     2.73  1100.00        1 24581.65
  1017             NS_1017             10.50  1740.00     2.48   440.00        1  5369.81
  1018             CIRCULAR             7.10    39.59     1.77     7.10        1   105.79
  10181            TRAPEZOIDAL          4.00  1600.00     2.67   600.00        1 15144.62
  1020             NS_1020             16.50  6707.50     3.44   980.00        1 48468.03
  1022             NS_1022             12.00  3070.00     3.55   565.00        1 13199.51
  1023             RECT_CLOSED          7.00    98.00     2.33    14.00        1   287.59
  1025             NS_1025             12.60  1625.75     1.94   460.00        1  5394.69
  1026             RECT_CLOSED          4.00    16.00     1.00     4.00        1   128.84
  10261            CIRCULAR             5.00    19.63     1.25     5.00        1   162.15
  10262            TRAPEZOIDAL          2.00   140.00     1.55    90.00        1   138.89
  1028             NS_1028              9.10  2233.00     1.55   675.00        1  8163.48
  1029             CIRCULAR             4.25    14.19     1.06     4.25        1    57.18
  10291            TRAPEZOIDAL          2.00  1000.00     1.43   700.00        1  5557.54
  1031             NS_1031              6.60  2185.00     2.19   840.00        1 13458.74
  1040             NS_1040             23.50 11672.50     5.94   930.00        1 125405.66
  1042             NS_1042             13.10  3350.50     3.15   560.00        1 22946.05
  1044             NS_1044             14.80  5264.00     3.91   785.00        1 34910.08
  1045             RECT_CLOSED          4.00    18.00     1.06     4.50        1    36.72
  10451            TRAPEZOIDAL          2.00   800.00     1.33   600.00        1  3478.98
  1047             NS_1047             11.30  3654.50     2.02   950.00        1 21690.55
  1050             NS_1050             13.60  3425.00     2.98   575.00        1 22139.75
  1052             NS_1052             10.40  6066.00     4.57   890.00        1 84468.58
  1060             NS_1060             13.60  1362.00     1.83   520.00        1  8483.74
  1061             RECT_CLOSED          3.50    10.50     0.81     3.00        1    29.00
  10611            TRAPEZOIDAL          2.00   600.00     1.20   500.00        1  3077.63
  1063             NS_1063              9.10  1693.75     2.54   360.00        1 15830.58
  1070             NS_1070             10.50  1525.00     2.04   450.00        1 11189.05
  1080             CIRCULAR             4.00    12.57     1.00     4.00        1   242.18
  10801            TRAPEZOIDAL          5.00   500.00     3.32   150.00        1  2924.43
  10802            TRAPEZOIDAL          0.50    75.00     0.37   200.00        1  1125.18
  1082             NS_1082              9.50  2631.00     6.80   550.00        1 33086.60
  1083             CIRCULAR             4.00    12.57     1.00     4.00        1    58.93
  10831            TRAPEZOIDAL          2.00   640.00     1.88   340.00        1  5602.41
  1085             CIRCULAR             2.50     4.91     0.63     2.50        1     9.59
  1086             TRAPEZOIDAL          4.00   280.00     3.08    90.00        1   726.60
  1088             RECT_CLOSED          4.00    12.00     0.86     3.00        1    43.17
  1089             NS_1089             10.00  1312.50     2.03   375.00        1 11849.58
  
  
  
  ****************
  Transect Summary
  ****************

  Transect NS_1000
  Area:  
              0.0007     0.0018     0.0034     0.0053     0.0074 
              0.0098     0.0125     0.0157     0.0199     0.0250 
              0.0312     0.0383     0.0464     0.0554     0.0654 
              0.0764     0.0884     0.1014     0.1153     0.1302 
              0.1461     0.1629     0.1807     0.1995     0.2193 
              0.2400     0.2617     0.2844     0.3081     0.3326 
              0.3580     0.3842     0.4112     0.4391     0.4678 
              0.4974     0.5278     0.5591     0.5912     0.6241 
              0.6579     0.6926     0.7280     0.7644     0.8015 
              0.8395     0.8784     0.9181     0.9586     1.0000 
  Hrad:  
              0.0485     0.0862     0.1275     0.1855     0.2361 
              0.2811     0.3220     0.3437     0.3548     0.3611 
              0.3661     0.3716     0.3781     0.3860     0.3950 
              0.4051     0.4162     0.4281     0.4407     0.4538 
              0.4675     0.4815     0.4960     0.5108     0.5258 
              0.5411     0.5566     0.5723     0.5892     0.6079 
              0.6271     0.6466     0.6663     0.6862     0.7061 
              0.7261     0.7461     0.7660     0.7858     0.8057 
              0.8254     0.8451     0.8647     0.8842     0.9037 
              0.9231     0.9424     0.9617     0.9809     1.0000 
  Width: 
              0.0214     0.0325     0.0425     0.0485     0.0545 
              0.0605     0.0665     0.0884     0.1117     0.1350 
              0.1583     0.1816     0.2049     0.2282     0.2515 
              0.2748     0.2981     0.3214     0.3447     0.3680 
              0.3913     0.4146     0.4379     0.4612     0.4845 
              0.5078     0.5311     0.5544     0.5763     0.5965 
              0.6166     0.6368     0.6570     0.6772     0.6973 
              0.7175     0.7377     0.7579     0.7780     0.7982 
              0.8184     0.8386     0.8588     0.8789     0.8991 
              0.9193     0.9395     0.9596     0.9798     1.0000 

  Transect NS_1003
  Area:  
              0.0001     0.0003     0.0006     0.0011     0.0018 
              0.0026     0.0035     0.0046     0.0070     0.0108 
              0.0160     0.0227     0.0306     0.0398     0.0501 
              0.0616     0.0744     0.0885     0.1039     0.1206 
              0.1386     0.1574     0.1770     0.1974     0.2187 
              0.2408     0.2638     0.2875     0.3121     0.3375 
              0.3638     0.3909     0.4188     0.4475     0.4771 
              0.5075     0.5387     0.5707     0.6033     0.6364 
              0.6702     0.7045     0.7394     0.7749     0.8110 
              0.8476     0.8848     0.9226     0.9610     1.0000 
  Hrad:  
              0.0399     0.0799     0.1198     0.1598     0.1997 
              0.2396     0.2796     0.3244     0.3156     0.2863 
              0.2667     0.2584     0.2621     0.2714     0.2834 
              0.2970     0.3103     0.3242     0.3386     0.3533 
              0.3687     0.3861     0.4050     0.4249     0.4454 
              0.4662     0.4872     0.5083     0.5295     0.5506 
              0.5716     0.5926     0.6135     0.6342     0.6549 
              0.6754     0.6959     0.7192     0.7434     0.7675 
              0.7915     0.8152     0.8389     0.8623     0.8856 
              0.9088     0.9318     0.9547     0.9774     1.0000 
  Width: 
              0.0036     0.0072     0.0108     0.0144     0.0180 
              0.0217     0.0253     0.0412     0.0781     0.1149 
              0.1517     0.1876     0.2179     0.2482     0.2785 
              0.3088     0.3421     0.3756     0.4092     0.4428 
              0.4681     0.4892     0.5103     0.5314     0.5525 
              0.5736     0.5947     0.6159     0.6370     0.6581 
              0.6792     0.7003     0.7214     0.7425     0.7636 
              0.7847     0.8058     0.8225     0.8373     0.8520 
              0.8668     0.8816     0.8964     0.9112     0.9260 
              0.9408     0.9556     0.9704     0.9852     1.0000 

  Transect NS_1005
  Area:  
              0.0001     0.0005     0.0012     0.0023     0.0054 
              0.0109     0.0188     0.0291     0.0405     0.0524 
              0.0649     0.0780     0.0917     0.1059     0.1207 
              0.1360     0.1519     0.1684     0.1855     0.2031 
              0.2213     0.2400     0.2593     0.2792     0.2997 
              0.3207     0.3423     0.3644     0.3871     0.4104 
              0.4343     0.4588     0.4838     0.5095     0.5357 
              0.5626     0.5900     0.6180     0.6466     0.6758 
              0.7055     0.7359     0.7668     0.7984     0.8305 
              0.8632     0.8965     0.9304     0.9649     1.0000 
  Hrad:  
              0.0372     0.0745     0.1117     0.1456     0.1266 
              0.1195     0.1233     0.1347     0.1593     0.1850 
              0.2109     0.2364     0.2615     0.2862     0.3103 
              0.3340     0.3573     0.3802     0.4027     0.4249 
              0.4467     0.4683     0.4895     0.5106     0.5314 
              0.5519     0.5723     0.5925     0.6125     0.6318 
              0.6511     0.6702     0.6893     0.7082     0.7270 
              0.7457     0.7644     0.7829     0.8014     0.8198 
              0.8381     0.8563     0.8745     0.8926     0.9106 
              0.9286     0.9465     0.9644     0.9822     1.0000 
  Width: 
              0.0075     0.0151     0.0226     0.0548     0.1221 
              0.1894     0.2566     0.3139     0.3299     0.3459 
              0.3620     0.3780     0.3940     0.4100     0.4260 
              0.4420     0.4580     0.4741     0.4901     0.5061 
              0.5221     0.5381     0.5541     0.5701     0.5861 
              0.6022     0.6182     0.6342     0.6503     0.6669 
              0.6836     0.7002     0.7169     0.7335     0.7502 
              0.7668     0.7835     0.8002     0.8168     0.8335 
              0.8501     0.8668     0.8834     0.9001     0.9167 
              0.9334     0.9500     0.9667     0.9833     1.0000 

  Transect NS_1008
  Area:  
              0.0001     0.0003     0.0008     0.0014     0.0023 
              0.0034     0.0049     0.0072     0.0108     0.0158 
              0.0220     0.0297     0.0386     0.0489     0.0605 
              0.0734     0.0877     0.1028     0.1183     0.1343 
              0.1508     0.1678     0.1853     0.2032     0.2216 
              0.2405     0.2598     0.2796     0.2999     0.3207 
              0.3420     0.3637     0.3859     0.4088     0.4332 
              0.4593     0.4870     0.5164     0.5475     0.5803 
              0.6148     0.6509     0.6887     0.7281     0.7693 
              0.8121     0.8565     0.9027     0.9505     1.0000 
  Hrad:  
              0.0455     0.0910     0.1365     0.1741     0.2065 
              0.2456     0.2899     0.3352     0.3382     0.3349 
              0.3348     0.3391     0.3471     0.3579     0.3707 
              0.3851     0.4021     0.4324     0.4638     0.4958 
              0.5280     0.5602     0.5922     0.6240     0.6556 
              0.6868     0.7177     0.7483     0.7786     0.8086 
              0.8383     0.8677     0.8968     0.9029     0.8945 
              0.8899     0.8884     0.8894     0.8925     0.8972 
              0.9034     0.9108     0.9193     0.9288     0.9390 
              0.9500     0.9617     0.9739     0.9867     1.0000 
  Width: 
              0.0034     0.0069     0.0103     0.0145     0.0202 
              0.0259     0.0325     0.0589     0.0853     0.1117 
              0.1382     0.1646     0.1910     0.2175     0.2439 
              0.2703     0.2948     0.3043     0.3137     0.3231 
              0.3326     0.3420     0.3514     0.3609     0.3703 
              0.3798     0.3892     0.3986     0.4081     0.4175 
              0.4269     0.4364     0.4458     0.4685     0.5017 
              0.5349     0.5681     0.6014     0.6346     0.6678 
              0.7010     0.7342     0.7675     0.8007     0.8339 
              0.8671     0.9003     0.9336     0.9668     1.0000 

  Transect NS_1011
  Area:  
              0.0001     0.0005     0.0010     0.0018     0.0029 
              0.0041     0.0056     0.0074     0.0093     0.0115 
              0.0139     0.0166     0.0196     0.0229     0.0267 
              0.0310     0.0356     0.0409     0.0477     0.0560 
              0.0659     0.0773     0.0903     0.1048     0.1209 
              0.1385     0.1576     0.1783     0.2006     0.2244 
              0.2498     0.2767     0.3051     0.3351     0.3666 
              0.3997     0.4344     0.4706     0.5083     0.5476 
              0.5884     0.6308     0.6747     0.7201     0.7661 
              0.8124     0.8589     0.9057     0.9527     1.0000 
  Hrad:  
              0.0406     0.0812     0.1219     0.1625     0.2031 
              0.2437     0.2844     0.3250     0.3656     0.4062 
              0.4469     0.4875     0.5578     0.6183     0.6680 
              0.7094     0.7446     0.7629     0.7590     0.7440 
              0.7249     0.7060     0.6894     0.6761     0.6662 
              0.6596     0.6559     0.6548     0.6560     0.6591 
              0.6639     0.6702     0.6777     0.6863     0.6959 
              0.7063     0.7174     0.7292     0.7415     0.7543 
              0.7676     0.7813     0.7953     0.8145     0.8446 
              0.8751     0.9059     0.9371     0.9685     1.0000 
  Width: 
              0.0049     0.0097     0.0146     0.0194     0.0243 
              0.0292     0.0340     0.0389     0.0437     0.0486 
              0.0535     0.0583     0.0668     0.0758     0.0847 
              0.0936     0.1026     0.1265     0.1591     0.1918 
              0.2244     0.2570     0.2897     0.3223     0.3549 
              0.3876     0.4202     0.4528     0.4855     0.5181 
              0.5508     0.5834     0.6160     0.6487     0.6813 
              0.7139     0.7466     0.7792     0.8118     0.8445 
              0.8771     0.9097     0.9424     0.9665     0.9721 
              0.9776     0.9832     0.9888     0.9944     1.0000 

  Transect NS_1014
  Area:  
              0.0001     0.0005     0.0011     0.0019     0.0030 
              0.0043     0.0059     0.0077     0.0097     0.0120 
              0.0146     0.0173     0.0203     0.0236     0.0271 
              0.0308     0.0350     0.0395     0.0444     0.0497 
              0.0554     0.0617     0.0692     0.0779     0.0877 
              0.0986     0.1108     0.1246     0.1407     0.1589 
              0.1793     0.2019     0.2266     0.2535     0.2825 
              0.3138     0.3472     0.3827     0.4205     0.4608 
              0.5035     0.5487     0.5964     0.6466     0.6993 
              0.7545     0.8121     0.8723     0.9349     1.0000 
  Hrad:  
              0.0475     0.0950     0.1425     0.1900     0.2375 
              0.2850     0.3325     0.3800     0.4275     0.4750 
              0.5225     0.5700     0.6175     0.6650     0.7125 
              0.7893     0.8693     0.9392     1.0006     1.0550 
              1.1037     1.1365     1.1532     1.1578     1.1549 
              1.1478     1.1355     1.1028     1.0737     1.0462 
              1.0211     0.9991     0.9805     0.9654     0.9537 
              0.9452     0.9396     0.9366     0.9344     0.9331 
              0.9336     0.9359     0.9397     0.9450     0.9515 
              0.9593     0.9681     0.9779     0.9885     1.0000 
  Width: 
              0.0036     0.0073     0.0109     0.0145     0.0181 
              0.0218     0.0254     0.0290     0.0326     0.0363 
              0.0399     0.0435     0.0471     0.0508     0.0544 
              0.0595     0.0653     0.0710     0.0768     0.0826 
              0.0883     0.1045     0.1218     0.1391     0.1564 
              0.1737     0.1929     0.2255     0.2582     0.2909 
              0.3236     0.3562     0.3889     0.4216     0.4543 
              0.4870     0.5196     0.5523     0.5877     0.6252 
              0.6627     0.7001     0.7376     0.7751     0.8126 
              0.8501     0.8876     0.9250     0.9625     1.0000 

  Transect NS_1017
  Area:  
              0.0001     0.0005     0.0010     0.0018     0.0028 
              0.0041     0.0055     0.0072     0.0091     0.0113 
              0.0136     0.0162     0.0190     0.0221     0.0253 
              0.0288     0.0326     0.0365     0.0407     0.0451 
              0.0497     0.0549     0.0621     0.0717     0.0835 
              0.0976     0.1140     0.1327     0.1537     0.1769 
              0.2024     0.2300     0.2594     0.2906     0.3237 
              0.3586     0.3953     0.4339     0.4743     0.5166 
              0.5606     0.6056     0.6516     0.6985     0.7464 
              0.7952     0.8450     0.8957     0.9474     1.0000 
  Hrad:  
              0.0410     0.0820     0.1230     0.1640     0.2051 
              0.2461     0.2871     0.3281     0.3691     0.4101 
              0.4511     0.4921     0.5331     0.5742     0.6152 
              0.6562     0.6972     0.7382     0.7792     0.8202 
              0.8612     0.9167     0.9462     0.9424     0.9201 
              0.8901     0.8592     0.8307     0.8062     0.7860 
              0.7703     0.7621     0.7582     0.7575     0.7594 
              0.7634     0.7692     0.7763     0.7847     0.7940 
              0.8084     0.8276     0.8476     0.8684     0.8896 
              0.9112     0.9331     0.9553     0.9776     1.0000 
  Width: 
              0.0042     0.0085     0.0127     0.0170     0.0212 
              0.0255     0.0297     0.0339     0.0382     0.0424 
              0.0467     0.0509     0.0552     0.0594     0.0636 
              0.0679     0.0721     0.0764     0.0806     0.0848 
              0.0891     0.1155     0.1584     0.2014     0.2443 
              0.2873     0.3302     0.3732     0.4161     0.4591 
              0.5016     0.5362     0.5709     0.6055     0.6401 
              0.6747     0.7093     0.7439     0.7785     0.8131 
              0.8389     0.8568     0.8747     0.8926     0.9105 
              0.9284     0.9463     0.9642     0.9821     1.0000 

  Transect NS_1020
  Area:  
              0.0001     0.0004     0.0009     0.0016     0.0024 
              0.0035     0.0048     0.0063     0.0082     0.0106 
              0.0135     0.0169     0.0208     0.0252     0.0308 
              0.0378     0.0462     0.0559     0.0671     0.0796 
              0.0933     0.1082     0.1243     0.1415     0.1599 
              0.1795     0.2003     0.2222     0.2452     0.2695 
              0.2949     0.3215     0.3493     0.3782     0.4083 
              0.4396     0.4720     0.5056     0.5404     0.5763 
              0.6134     0.6517     0.6911     0.7318     0.7735 
              0.8165     0.8606     0.9059     0.9524     1.0000 
  Hrad:  
              0.0471     0.0942     0.1412     0.1883     0.2354 
              0.2825     0.3295     0.3927     0.4536     0.4920 
              0.5183     0.5383     0.5553     0.5634     0.5549 
              0.5419     0.5294     0.5199     0.5141     0.5125 
              0.5158     0.5223     0.5311     0.5418     0.5540 
              0.5672     0.5814     0.5964     0.6120     0.6282 
              0.6448     0.6618     0.6791     0.6967     0.7146 
              0.7327     0.7510     0.7695     0.7881     0.8069 
              0.8258     0.8448     0.8640     0.8832     0.9025 
              0.9218     0.9413     0.9608     0.9804     1.0000 
  Width: 
              0.0040     0.0081     0.0121     0.0162     0.0202 
              0.0242     0.0283     0.0349     0.0450     0.0551 
              0.0652     0.0753     0.0854     0.1022     0.1309 
              0.1595     0.1881     0.2167     0.2454     0.2727 
              0.2969     0.3211     0.3454     0.3696     0.3939 
              0.4181     0.4424     0.4666     0.4909     0.5151 
              0.5393     0.5636     0.5878     0.6121     0.6363 
              0.6606     0.6848     0.7091     0.7333     0.7576 
              0.7818     0.8060     0.8303     0.8545     0.8788 
              0.9030     0.9273     0.9515     0.9758     1.0000 

  Transect NS_1022
  Area:  
              0.0003     0.0011     0.0025     0.0045     0.0070 
              0.0101     0.0138     0.0180     0.0228     0.0280 
              0.0337     0.0399     0.0465     0.0537     0.0612 
              0.0693     0.0779     0.0878     0.0992     0.1122 
              0.1267     0.1428     0.1604     0.1796     0.2003 
              0.2222     0.2449     0.2683     0.2925     0.3175 
              0.3432     0.3698     0.3971     0.4252     0.4540 
              0.4836     0.5140     0.5452     0.5771     0.6099 
              0.6434     0.6782     0.7149     0.7527     0.7915 
              0.8312     0.8719     0.9136     0.9563     1.0000 
  Hrad:  
              0.0335     0.0671     0.1006     0.1342     0.1677 
              0.2013     0.2348     0.2684     0.3223     0.3799 
              0.4313     0.4776     0.5197     0.5583     0.5940 
              0.6273     0.6542     0.6675     0.6752     0.6786 
              0.6795     0.6792     0.6784     0.6778     0.6777 
              0.6857     0.6955     0.7068     0.7192     0.7325 
              0.7463     0.7606     0.7753     0.7903     0.8055 
              0.8209     0.8364     0.8520     0.8677     0.8835 
              0.8993     0.8933     0.9064     0.9196     0.9329 
              0.9462     0.9596     0.9730     0.9865     1.0000 
  Width: 
              0.0127     0.0255     0.0382     0.0510     0.0637 
              0.0765     0.0892     0.1019     0.1133     0.1239 
              0.1345     0.1451     0.1558     0.1664     0.1770 
              0.1876     0.2064     0.2414     0.2765     0.3115 
              0.3465     0.3816     0.4166     0.4517     0.4867 
              0.5042     0.5218     0.5393     0.5568     0.5743 
              0.5919     0.6094     0.6269     0.6444     0.6619 
              0.6795     0.6970     0.7145     0.7320     0.7496 
              0.7671     0.8216     0.8439     0.8662     0.8885 
              0.9108     0.9331     0.9554     0.9777     1.0000 

  Transect NS_1025
  Area:  
              0.0001     0.0003     0.0006     0.0011     0.0017 
              0.0025     0.0033     0.0044     0.0055     0.0068 
              0.0082     0.0098     0.0115     0.0134     0.0153 
              0.0174     0.0197     0.0223     0.0256     0.0296 
              0.0343     0.0396     0.0457     0.0524     0.0598 
              0.0683     0.0781     0.0892     0.1018     0.1157 
              0.1309     0.1476     0.1656     0.1865     0.2115 
              0.2406     0.2738     0.3111     0.3526     0.3981 
              0.4477     0.5002     0.5550     0.6119     0.6711 
              0.7325     0.7960     0.8618     0.9298     1.0000 
  Hrad:  
              0.0554     0.1108     0.1662     0.2216     0.2770 
              0.3325     0.3879     0.4433     0.4987     0.5541 
              0.6095     0.6649     0.7203     0.7757     0.8311 
              0.8866     0.9420     1.0300     1.0851     1.1149 
              1.1289     1.1339     1.1346     1.1339     1.1334 
              1.1149     1.0947     1.0746     1.0564     1.0413 
              1.0297     1.0216     1.0125     0.9540     0.9109 
              0.8771     0.8507     0.8308     0.8166     0.8076 
              0.8048     0.8192     0.8366     0.8563     0.8777 
              0.9005     0.9243     0.9489     0.9742     1.0000 
  Width: 
              0.0019     0.0038     0.0057     0.0076     0.0096 
              0.0115     0.0134     0.0153     0.0172     0.0191 
              0.0210     0.0229     0.0248     0.0268     0.0287 
              0.0306     0.0325     0.0416     0.0512     0.0608 
              0.0703     0.0799     0.0895     0.0991     0.1087 
              0.1279     0.1470     0.1662     0.1854     0.2046 
              0.2237     0.2429     0.2645     0.3220     0.3796 
              0.4371     0.4946     0.5521     0.6097     0.6672 
              0.7213     0.7523     0.7833     0.8142     0.8452 
              0.8761     0.9071     0.9381     0.9690     1.0000 

  Transect NS_1028
  Area:  
              0.0000     0.0001     0.0003     0.0006     0.0009 
              0.0013     0.0017     0.0023     0.0029     0.0035 
              0.0043     0.0052     0.0070     0.0099     0.0137 
              0.0187     0.0246     0.0316     0.0397     0.0488 
              0.0589     0.0701     0.0823     0.0960     0.1113 
              0.1282     0.1466     0.1666     0.1881     0.2112 
              0.2358     0.2620     0.2898     0.3191     0.3500 
              0.3824     0.4164     0.4520     0.4891     0.5277 
              0.5679     0.6097     0.6531     0.6979     0.7444 
              0.7924     0.8420     0.8931     0.9458     1.0000 
  Hrad:  
              0.0540     0.1079     0.1619     0.2159     0.2698 
              0.3238     0.3777     0.4317     0.4857     0.5396 
              0.5936     0.6525     0.6249     0.5597     0.5062 
              0.4719     0.4533     0.4458     0.4461     0.4520 
              0.4618     0.4745     0.4837     0.4895     0.4980 
              0.5088     0.5214     0.5356     0.5512     0.5679 
              0.5855     0.6039     0.6230     0.6427     0.6629 
              0.6836     0.7047     0.7261     0.7478     0.7699 
              0.7921     0.8146     0.8372     0.8601     0.8831 
              0.9062     0.9295     0.9529     0.9764     1.0000 
  Width: 
              0.0013     0.0026     0.0039     0.0051     0.0064 
              0.0077     0.0090     0.0103     0.0116     0.0128 
              0.0141     0.0235     0.0424     0.0613     0.0801 
              0.0990     0.1179     0.1368     0.1556     0.1745 
              0.1934     0.2123     0.2356     0.2639     0.2922 
              0.3205     0.3488     0.3772     0.4055     0.4338 
              0.4621     0.4904     0.5187     0.5470     0.5753 
              0.6036     0.6320     0.6603     0.6886     0.7169 
              0.7452     0.7735     0.8018     0.8301     0.8584 
              0.8868     0.9151     0.9434     0.9717     1.0000 

  Transect NS_1031
  Area:  
              0.0002     0.0009     0.0021     0.0037     0.0058 
              0.0083     0.0113     0.0147     0.0186     0.0230 
              0.0278     0.0331     0.0389     0.0451     0.0518 
              0.0589     0.0665     0.0745     0.0830     0.0921 
              0.1022     0.1138     0.1268     0.1412     0.1569 
              0.1741     0.1926     0.2126     0.2339     0.2567 
              0.2808     0.3063     0.3333     0.3616     0.3913 
              0.4224     0.4549     0.4887     0.5238     0.5603 
              0.5982     0.6374     0.6780     0.7199     0.7632 
              0.8079     0.8539     0.9012     0.9499     1.0000 
  Hrad:  
              0.0300     0.0601     0.0901     0.1202     0.1502 
              0.1803     0.2103     0.2404     0.2704     0.3005 
              0.3305     0.3606     0.3906     0.4207     0.4507 
              0.4808     0.5108     0.5408     0.5709     0.6094 
              0.6595     0.6991     0.7301     0.7546     0.7739 
              0.7895     0.8023     0.8131     0.8224     0.8308 
              0.8386     0.8459     0.8530     0.8600     0.8671 
              0.8746     0.8824     0.8904     0.8987     0.9071 
              0.9157     0.9245     0.9334     0.9425     0.9517 
              0.9611     0.9706     0.9803     0.9901     1.0000 
  Width: 
              0.0091     0.0181     0.0272     0.0363     0.0453 
              0.0544     0.0635     0.0725     0.0816     0.0907 
              0.0997     0.1088     0.1179     0.1269     0.1360 
              0.1451     0.1541     0.1632     0.1723     0.1869 
              0.2144     0.2419     0.2694     0.2969     0.3244 
              0.3519     0.3794     0.4069     0.4344     0.4619 
              0.4894     0.5169     0.5444     0.5719     0.5993 
              0.6260     0.6527     0.6794     0.7061     0.7329 
              0.7596     0.7863     0.8130     0.8397     0.8664 
              0.8931     0.9199     0.9466     0.9733     1.0000 

  Transect NS_1040
  Area:  
              0.0001     0.0003     0.0006     0.0010     0.0017 
              0.0025     0.0035     0.0051     0.0091     0.0156 
              0.0248     0.0365     0.0494     0.0631     0.0776 
              0.0930     0.1091     0.1261     0.1438     0.1624 
              0.1817     0.2015     0.2220     0.2431     0.2647 
              0.2869     0.3097     0.3331     0.3571     0.3817 
              0.4069     0.4326     0.4590     0.4859     0.5134 
              0.5415     0.5702     0.5994     0.6293     0.6597 
              0.6907     0.7224     0.7547     0.7877     0.8213 
              0.8557     0.8907     0.9265     0.9629     1.0000 
  Hrad:  
              0.0378     0.0755     0.1133     0.1409     0.1722 
              0.2064     0.2421     0.2698     0.2274     0.1960 
              0.1838     0.1864     0.2048     0.2265     0.2493 
              0.2726     0.2958     0.3188     0.3416     0.3641 
              0.3882     0.4126     0.4368     0.4608     0.4845 
              0.5080     0.5312     0.5543     0.5770     0.5996 
              0.6220     0.6441     0.6661     0.6879     0.7095 
              0.7309     0.7522     0.7734     0.7944     0.8152 
              0.8360     0.8554     0.8736     0.8918     0.9099 
              0.9280     0.9460     0.9641     0.9820     1.0000 
  Width: 
              0.0034     0.0067     0.0101     0.0148     0.0199 
              0.0249     0.0300     0.0707     0.1402     0.2097 
              0.2792     0.3344     0.3558     0.3773     0.3988 
              0.4203     0.4417     0.4632     0.4847     0.5062 
              0.5231     0.5388     0.5544     0.5701     0.5858 
              0.6014     0.6171     0.6328     0.6484     0.6641 
              0.6798     0.6954     0.7111     0.7268     0.7424 
              0.7581     0.7738     0.7894     0.8051     0.8208 
              0.8364     0.8534     0.8718     0.8901     0.9084 
              0.9267     0.9450     0.9634     0.9817     1.0000 

  Transect NS_1042
  Area:  
              0.0001     0.0003     0.0007     0.0013     0.0020 
              0.0030     0.0040     0.0052     0.0066     0.0083 
              0.0113     0.0158     0.0218     0.0292     0.0381 
              0.0485     0.0604     0.0738     0.0887     0.1050 
              0.1229     0.1422     0.1630     0.1853     0.2091 
              0.2337     0.2589     0.2847     0.3110     0.3379 
              0.3653     0.3933     0.4219     0.4510     0.4807 
              0.5110     0.5418     0.5732     0.6052     0.6377 
              0.6708     0.7044     0.7386     0.7734     0.8087 
              0.8446     0.8811     0.9182     0.9577     1.0000 
  Hrad:  
              0.0402     0.0804     0.1207     0.1609     0.2011 
              0.2413     0.2815     0.3218     0.3620     0.4097 
              0.4136     0.3904     0.3677     0.3525     0.3446 
              0.3425     0.3446     0.3499     0.3575     0.3670 
              0.3778     0.3897     0.4024     0.4159     0.4320 
              0.4575     0.4835     0.5097     0.5360     0.5623 
              0.5886     0.6147     0.6408     0.6666     0.6923 
              0.7179     0.7432     0.7684     0.7934     0.8182 
              0.8429     0.8673     0.8916     0.9158     0.9397 
              0.9635     0.9872     1.0008     0.9973     1.0000 
  Width: 
              0.0037     0.0075     0.0112     0.0150     0.0187 
              0.0225     0.0262     0.0299     0.0337     0.0513 
              0.0852     0.1191     0.1530     0.1869     0.2208 
              0.2548     0.2887     0.3226     0.3565     0.3904 
              0.4244     0.4583     0.4922     0.5261     0.5560 
              0.5689     0.5818     0.5946     0.6075     0.6204 
              0.6332     0.6461     0.6590     0.6718     0.6847 
              0.6976     0.7104     0.7233     0.7362     0.7490 
              0.7619     0.7748     0.7876     0.8005     0.8133 
              0.8262     0.8391     0.8674     0.9337     1.0000 

  Transect NS_1044
  Area:  
              0.0002     0.0007     0.0016     0.0029     0.0045 
              0.0064     0.0087     0.0114     0.0144     0.0180 
              0.0229     0.0294     0.0373     0.0467     0.0576 
              0.0701     0.0837     0.0978     0.1125     0.1276 
              0.1432     0.1594     0.1760     0.1934     0.2118 
              0.2312     0.2516     0.2731     0.2955     0.3190 
              0.3435     0.3689     0.3954     0.4229     0.4514 
              0.4809     0.5114     0.5430     0.5755     0.6090 
              0.6436     0.6792     0.7157     0.7533     0.7919 
              0.8315     0.8721     0.9137     0.9564     1.0000 
  Hrad:  
              0.0376     0.0751     0.1127     0.1502     0.1878 
              0.2253     0.2629     0.3004     0.3380     0.3892 
              0.4247     0.4392     0.4443     0.4465     0.4484 
              0.4513     0.4634     0.4817     0.5025     0.5248 
              0.5480     0.5717     0.5954     0.6102     0.6251 
              0.6399     0.6547     0.6695     0.6843     0.6991 
              0.7139     0.7287     0.7435     0.7583     0.7732 
              0.7881     0.8030     0.8179     0.8329     0.8479 
              0.8630     0.8781     0.8932     0.9084     0.9236 
              0.9388     0.9540     0.9693     0.9847     1.0000 
  Width: 
              0.0081     0.0162     0.0242     0.0323     0.0404 
              0.0485     0.0566     0.0646     0.0727     0.0948 
              0.1287     0.1626     0.1966     0.2305     0.2645 
              0.2984     0.3146     0.3259     0.3372     0.3485 
              0.3598     0.3712     0.3828     0.4056     0.4285 
              0.4514     0.4742     0.4971     0.5199     0.5428 
              0.5657     0.5885     0.6114     0.6342     0.6571 
              0.6800     0.7028     0.7257     0.7485     0.7714 
              0.7943     0.8171     0.8400     0.8628     0.8857 
              0.9086     0.9314     0.9543     0.9771     1.0000 

  Transect NS_1047
  Area:  
              0.0001     0.0003     0.0006     0.0010     0.0016 
              0.0023     0.0031     0.0041     0.0051     0.0064 
              0.0077     0.0091     0.0107     0.0125     0.0143 
              0.0169     0.0202     0.0243     0.0291     0.0348 
              0.0411     0.0483     0.0562     0.0652     0.0762 
              0.0895     0.1051     0.1229     0.1431     0.1655 
              0.1901     0.2171     0.2461     0.2769     0.3094 
              0.3436     0.3795     0.4170     0.4563     0.4972 
              0.5399     0.5842     0.6303     0.6780     0.7274 
              0.7786     0.8314     0.8859     0.9421     1.0000 
  Hrad:  
              0.0543     0.1086     0.1629     0.2171     0.2714 
              0.3257     0.3800     0.4343     0.4886     0.5428 
              0.5971     0.6514     0.7057     0.7600     0.8308 
              0.8888     0.9087     0.9077     0.8978     0.8857 
              0.8746     0.8662     0.8610     0.8382     0.8008 
              0.7669     0.7382     0.7156     0.6990     0.6878 
              0.6814     0.6791     0.6851     0.6959     0.7088 
              0.7233     0.7392     0.7561     0.7739     0.7924 
              0.8115     0.8311     0.8512     0.8717     0.8924 
              0.9135     0.9348     0.9564     0.9781     1.0000 
  Width: 
              0.0022     0.0043     0.0065     0.0087     0.0108 
              0.0130     0.0151     0.0173     0.0195     0.0216 
              0.0238     0.0260     0.0281     0.0303     0.0368 
              0.0499     0.0630     0.0760     0.0891     0.1022 
              0.1153     0.1284     0.1415     0.1686     0.2072 
              0.2459     0.2846     0.3232     0.3619     0.4005 
              0.4392     0.4778     0.5096     0.5385     0.5673 
              0.5962     0.6250     0.6539     0.6827     0.7116 
              0.7404     0.7692     0.7981     0.8269     0.8558 
              0.8846     0.9135     0.9423     0.9712     1.0000 

  Transect NS_1050
  Area:  
              0.0001     0.0003     0.0006     0.0012     0.0018 
              0.0026     0.0035     0.0046     0.0058     0.0072 
              0.0087     0.0110     0.0147     0.0199     0.0266 
              0.0347     0.0442     0.0553     0.0677     0.0817 
              0.0971     0.1139     0.1322     0.1520     0.1732 
              0.1959     0.2196     0.2441     0.2695     0.2957 
              0.3228     0.3507     0.3794     0.4090     0.4395 
              0.4708     0.5029     0.5359     0.5697     0.6044 
              0.6399     0.6763     0.7135     0.7515     0.7905 
              0.8302     0.8708     0.9123     0.9552     1.0000 
  Hrad:  
              0.0430     0.0860     0.1291     0.1721     0.2151 
              0.2581     0.3012     0.3442     0.3872     0.4302 
              0.4732     0.5119     0.4933     0.4617     0.4353 
              0.4175     0.4077     0.4042     0.4053     0.4100 
              0.4173     0.4267     0.4377     0.4500     0.4633 
              0.4795     0.5024     0.5256     0.5491     0.5727 
              0.5963     0.6199     0.6434     0.6669     0.6903 
              0.7136     0.7367     0.7598     0.7827     0.8056 
              0.8283     0.8510     0.8735     0.8959     0.9183 
              0.9405     0.9627     0.9815     0.9896     1.0000 
  Width: 
              0.0032     0.0063     0.0095     0.0126     0.0158 
              0.0189     0.0221     0.0252     0.0284     0.0315 
              0.0347     0.0658     0.0977     0.1296     0.1616 
              0.1935     0.2254     0.2574     0.2893     0.3212 
              0.3531     0.3851     0.4170     0.4489     0.4809 
              0.5093     0.5278     0.5463     0.5648     0.5834 
              0.6019     0.6204     0.6389     0.6575     0.6760 
              0.6945     0.7131     0.7316     0.7501     0.7686 
              0.7872     0.8057     0.8242     0.8427     0.8613 
              0.8798     0.8983     0.9212     0.9606     1.0000 

  Transect NS_1052
  Area:  
              0.0065     0.0137     0.0217     0.0303     0.0396 
              0.0497     0.0604     0.0718     0.0840     0.0968 
              0.1104     0.1246     0.1396     0.1552     0.1716 
              0.1886     0.2060     0.2238     0.2420     0.2605 
              0.2795     0.2989     0.3186     0.3388     0.3593 
              0.3803     0.4016     0.4233     0.4454     0.4679 
              0.4908     0.5141     0.5377     0.5618     0.5863 
              0.6111     0.6363     0.6620     0.6880     0.7144 
              0.7412     0.7684     0.7960     0.8239     0.8523 
              0.8811     0.9102     0.9397     0.9697     1.0000 
  Hrad:  
              0.0430     0.0819     0.1174     0.1500     0.1802 
              0.2082     0.2346     0.2593     0.2827     0.3049 
              0.3261     0.3464     0.3658     0.3846     0.4026 
              0.4219     0.4421     0.4622     0.4820     0.5016 
              0.5210     0.5401     0.5590     0.5777     0.5962 
              0.6144     0.6324     0.6502     0.6678     0.6852 
              0.7024     0.7194     0.7363     0.7529     0.7694 
              0.7858     0.8019     0.8180     0.8338     0.8496 
              0.8652     0.8806     0.8960     0.9112     0.9262 
              0.9412     0.9561     0.9708     0.9855     1.0000 
  Width: 
              0.2253     0.2483     0.2713     0.2943     0.3173 
              0.3403     0.3633     0.3863     0.4093     0.4323 
              0.4553     0.4783     0.5013     0.5243     0.5473 
              0.5641     0.5769     0.5897     0.6025     0.6154 
              0.6282     0.6410     0.6538     0.6666     0.6795 
              0.6923     0.7051     0.7179     0.7307     0.7436 
              0.7564     0.7692     0.7820     0.7949     0.8077 
              0.8205     0.8333     0.8461     0.8590     0.8718 
              0.8846     0.8974     0.9102     0.9231     0.9359 
              0.9487     0.9615     0.9744     0.9872     1.0000 

  Transect NS_1060
  Area:  
              0.0001     0.0005     0.0010     0.0018     0.0028 
              0.0041     0.0055     0.0072     0.0092     0.0113 
              0.0137     0.0163     0.0191     0.0222     0.0256 
              0.0293     0.0333     0.0377     0.0424     0.0473 
              0.0526     0.0583     0.0642     0.0704     0.0770 
              0.0839     0.0911     0.0986     0.1064     0.1146 
              0.1230     0.1318     0.1409     0.1503     0.1601 
              0.1716     0.1893     0.2134     0.2438     0.2807 
              0.3239     0.3735     0.4294     0.4918     0.5605 
              0.6357     0.7172     0.8051     0.8993     1.0000 
  Hrad:  
              0.0661     0.1322     0.1983     0.2644     0.3305 
              0.3966     0.4626     0.5287     0.5948     0.6609 
              0.7270     0.7931     0.8592     0.9702     1.0803 
              1.1766     1.2617     1.3375     1.4059     1.4682 
              1.5255     1.5786     1.6284     1.6754     1.7199 
              1.7626     1.8035     1.8431     1.8814     1.9187 
              1.9551     1.9908     2.0259     2.0603     2.0943 
              1.9370     1.7842     1.6475     1.5191     1.4037 
              1.3048     1.2233     1.1581     1.1072     1.0687 
              1.0405     1.0208     1.0083     1.0017     1.0000 
  Width: 
              0.0022     0.0044     0.0065     0.0087     0.0109 
              0.0131     0.0153     0.0174     0.0196     0.0218 
              0.0240     0.0262     0.0283     0.0312     0.0342 
              0.0373     0.0403     0.0434     0.0464     0.0495 
              0.0525     0.0556     0.0586     0.0617     0.0647 
              0.0678     0.0708     0.0739     0.0769     0.0800 
              0.0831     0.0861     0.0892     0.0922     0.0953 
              0.1395     0.2010     0.2625     0.3239     0.3854 
              0.4468     0.5083     0.5698     0.6312     0.6927 
              0.7542     0.8156     0.8771     0.9385     1.0000 

  Transect NS_1063
  Area:  
              0.0002     0.0009     0.0020     0.0036     0.0056 
              0.0080     0.0110     0.0145     0.0186     0.0233 
              0.0286     0.0345     0.0410     0.0481     0.0557 
              0.0639     0.0728     0.0827     0.0942     0.1075 
              0.1224     0.1389     0.1572     0.1770     0.1986 
              0.2218     0.2467     0.2732     0.3008     0.3290 
              0.3577     0.3869     0.4166     0.4468     0.4775 
              0.5087     0.5405     0.5728     0.6055     0.6388 
              0.6726     0.7070     0.7418     0.7771     0.8130 
              0.8494     0.8863     0.9237     0.9616     1.0000 
  Hrad:  
              0.0355     0.0709     0.1064     0.1419     0.1774 
              0.2128     0.2733     0.3206     0.3581     0.3892 
              0.4159     0.4397     0.4614     0.4816     0.5007 
              0.5191     0.5367     0.5398     0.5425     0.5432 
              0.5429     0.5424     0.5423     0.5430     0.5446 
              0.5473     0.5509     0.5555     0.5704     0.5873 
              0.6054     0.6243     0.6440     0.6641     0.6845 
              0.7053     0.7262     0.7473     0.7684     0.7896 
              0.8108     0.8320     0.8532     0.8743     0.8954 
              0.9165     0.9375     0.9584     0.9792     1.0000 
  Width: 
              0.0115     0.0230     0.0345     0.0460     0.0574 
              0.0689     0.0839     0.0991     0.1143     0.1294 
              0.1446     0.1598     0.1749     0.1901     0.2053 
              0.2204     0.2356     0.2777     0.3206     0.3636 
              0.4066     0.4496     0.4925     0.5355     0.5785 
              0.6214     0.6644     0.7074     0.7213     0.7346 
              0.7479     0.7611     0.7744     0.7877     0.8009 
              0.8142     0.8275     0.8408     0.8540     0.8673 
              0.8806     0.8938     0.9071     0.9204     0.9336 
              0.9469     0.9602     0.9735     0.9867     1.0000 

  Transect NS_1070
  Area:  
              0.0001     0.0005     0.0010     0.0019     0.0029 
              0.0042     0.0057     0.0074     0.0094     0.0116 
              0.0140     0.0167     0.0199     0.0241     0.0291 
              0.0349     0.0417     0.0493     0.0578     0.0671 
              0.0773     0.0884     0.1003     0.1132     0.1268 
              0.1414     0.1568     0.1731     0.1902     0.2083 
              0.2272     0.2477     0.2704     0.2954     0.3226 
              0.3521     0.3838     0.4178     0.4540     0.4924 
              0.5331     0.5760     0.6211     0.6685     0.7182 
              0.7701     0.8242     0.8805     0.9392     1.0000 
  Hrad:  
              0.0493     0.0986     0.1480     0.1973     0.2466 
              0.2959     0.3453     0.3946     0.4439     0.4932 
              0.5426     0.5964     0.6711     0.7152     0.7404 
              0.7550     0.7643     0.7714     0.7780     0.7850 
              0.7928     0.8017     0.8116     0.8225     0.8343 
              0.8471     0.8606     0.8748     0.8897     0.9052 
              0.9196     0.9095     0.9042     0.9012     0.8996 
              0.8992     0.8999     0.9017     0.9047     0.9087 
              0.9138     0.9200     0.9271     0.9351     0.9441 
              0.9538     0.9644     0.9756     0.9875     1.0000 
  Width: 
              0.0037     0.0075     0.0112     0.0149     0.0187 
              0.0224     0.0261     0.0299     0.0336     0.0373 
              0.0411     0.0458     0.0598     0.0738     0.0878 
              0.1018     0.1158     0.1298     0.1438     0.1578 
              0.1718     0.1858     0.1998     0.2138     0.2278 
              0.2418     0.2558     0.2698     0.2838     0.2978 
              0.3128     0.3490     0.3852     0.4213     0.4575 
              0.4937     0.5298     0.5660     0.6022     0.6383 
              0.6745     0.7107     0.7468     0.7830     0.8192 
              0.8553     0.8915     0.9277     0.9638     1.0000 

  Transect NS_1082
  Area:  
              0.0131     0.0263     0.0397     0.0533     0.0670 
              0.0809     0.0949     0.1092     0.1235     0.1381 
              0.1528     0.1676     0.1826     0.1978     0.2131 
              0.2286     0.2443     0.2601     0.2761     0.2923 
              0.3086     0.3250     0.3417     0.3585     0.3754 
              0.3925     0.4098     0.4274     0.4454     0.4639 
              0.4827     0.5019     0.5216     0.5417     0.5622 
              0.5831     0.6044     0.6263     0.6496     0.6743 
              0.7004     0.7280     0.7570     0.7874     0.8193 
              0.8526     0.8873     0.9234     0.9610     1.0000 
  Hrad:  
              0.0276     0.0549     0.0819     0.1085     0.1348 
              0.1608     0.1866     0.2120     0.2372     0.2621 
              0.2867     0.3111     0.3353     0.3593     0.3830 
              0.4065     0.4298     0.4529     0.4758     0.4985 
              0.5211     0.5434     0.5656     0.5876     0.6095 
              0.6311     0.6536     0.6807     0.7068     0.7321 
              0.7567     0.7804     0.8035     0.8259     0.8477 
              0.8688     0.8893     0.9082     0.9247     0.9390 
              0.9514     0.9619     0.9708     0.9781     0.9842 
              0.9891     0.9930     0.9961     0.9984     1.0000 
  Width: 
              0.3313     0.3354     0.3395     0.3435     0.3476 
              0.3517     0.3557     0.3598     0.3639     0.3679 
              0.3720     0.3760     0.3801     0.3842     0.3882 
              0.3923     0.3964     0.4004     0.4045     0.4086 
              0.4126     0.4167     0.4207     0.4248     0.4289 
              0.4329     0.4380     0.4484     0.4587     0.4691 
              0.4795     0.4898     0.5002     0.5105     0.5209 
              0.5313     0.5416     0.5682     0.6042     0.6402 
              0.6761     0.7121     0.7481     0.7841     0.8201 
              0.8561     0.8920     0.9280     0.9640     1.0000 

  Transect NS_1089
  Area:  
              0.0001     0.0004     0.0009     0.0016     0.0025 
              0.0037     0.0050     0.0065     0.0082     0.0102 
              0.0123     0.0146     0.0172     0.0199     0.0229 
              0.0263     0.0306     0.0358     0.0418     0.0486 
              0.0562     0.0647     0.0741     0.0842     0.0952 
              0.1078     0.1225     0.1395     0.1586     0.1800 
              0.2036     0.2294     0.2574     0.2876     0.3200 
              0.3543     0.3902     0.4277     0.4667     0.5073 
              0.5495     0.5932     0.6386     0.6855     0.7340 
              0.7840     0.8357     0.8889     0.9436     1.0000 
  Hrad:  
              0.0470     0.0939     0.1409     0.1879     0.2348 
              0.2818     0.3287     0.3757     0.4227     0.4696 
              0.5166     0.5636     0.6105     0.6575     0.7044 
              0.7811     0.8294     0.8582     0.8747     0.8840 
              0.8895     0.8934     0.8969     0.9008     0.9056 
              0.8856     0.8647     0.8444     0.8260     0.8102 
              0.7976     0.7881     0.7816     0.7779     0.7767 
              0.7840     0.7935     0.8047     0.8172     0.8309 
              0.8454     0.8607     0.8767     0.8932     0.9102 
              0.9275     0.9452     0.9632     0.9815     1.0000 
  Width: 
              0.0036     0.0071     0.0107     0.0142     0.0178 
              0.0213     0.0249     0.0284     0.0320     0.0356 
              0.0391     0.0427     0.0462     0.0498     0.0533 
              0.0680     0.0827     0.0973     0.1120     0.1267 
              0.1413     0.1560     0.1707     0.1853     0.2000 
              0.2387     0.2773     0.3160     0.3547     0.3933 
              0.4320     0.4707     0.5093     0.5480     0.5867 
              0.6142     0.6418     0.6693     0.6969     0.7244 
              0.7520     0.7796     0.8071     0.8347     0.8622 
              0.8898     0.9173     0.9449     0.9724     1.0000 
  
  
  ERROR 133: Node 1001n has more than one outlet link.
  
  ERROR 133: Node 1006n has more than one outlet link.
  
  ERROR 133: Node 1015n has more than one outlet link.
  
  ERROR 133: Node 1018n has more than one outlet link.
  
  ERROR 133: Node 1026n has more than one outlet link.
  
  ERROR 133: Node 1080n has more than one outlet link.
  
  ERROR 133: Node 1029n has more than one outlet link.
  
  ERROR 133: Node 1045n has more than one outlet link.
  
  ERROR 133: Node 1061n has more than one outlet link.
  
  ERROR 133: Node 1083n has more than one outlet link.
  
  *********************************************************
  NOTE: The summary statistics displayed in this report are
  based on results found at every computational time step,  
  not just on results from each reporting time step.
  *********************************************************
  
  ****************
  Analysis Options
  ****************
  Flow Units ............... CFS
  Process Models:
    Rainfall/Runoff ........ YES
    RDII ................... NO
    Snowmelt ............... NO
    Groundwater ............ NO
    Flow Routing ........... YES
    Ponding Allowed ........ NO
    Water Quality .......... NO
  Infiltration Method ...... GREEN_AMPT
  Flow Routing Method ...... KINWAVE
  Starting Date ............ 01/01/2014 00:00:00
  Ending Date .............. 01/02/2014 00:00:00
  Antecedent Dry Days ...... 0.0
  Report Time Step ......... 00:00:15
  Wet Time Step ............ 00:01:00
  Dry Time Step ............ 00:01:00
  Routing Time Step ........ 15.00 sec
  

  Analysis begun on:  Wed Jan 02 08:33:29 2019
  Analysis ended on:  Wed Jan 02 08:33:29 2019
  Total elapsed time: < 1 sec