
  EPA STORM WATER MANAGEMENT MODEL - VERSION 5.1 (Build 5.1.012)
  --------------------------------------------------------------

  WARNING 04: minimum elevation drop used for Conduit C_4
  WARNING 02: maximum depth increased for Node RO_2
  WARNING 02: maximum depth increased for Node RO_3
  WARNING 02: maximum depth increased for Node RO_4
  WARNING 02: maximum depth increased for Node RO_5
  WARNING 02: maximum depth increased for Node RO_6
  WARNING 02: maximum depth increased for Node RO_7
  WARNING 02: maximum depth increased for Node RO_8
  WARNING 02: maximum depth increased for Node RO_9
  WARNING 02: maximum depth increased for Node RO_10
  
  *********************************************************
  NOTE: The summary statistics displayed in this report are
  based on results found at every computational time step,  
  not just on results from each reporting time step.
  *********************************************************
  
  ****************
  Analysis Options
  ****************
  Flow Units ............... LPS
  Process Models:
    Rainfall/Runoff ........ NO
    RDII ................... NO
    Snowmelt ............... NO
    Groundwater ............ NO
    Flow Routing ........... YES
    Ponding Allowed ........ NO
    Water Quality .......... NO
  Flow Routing Method ...... DYNWAVE
  Starting Date ............ 04/30/2012 00:00:00
  Ending Date .............. 04/30/2012 23:00:00
  Antecedent Dry Days ...... 0.0
  Report Time Step ......... 00:01:00
  Routing Time Step ........ 4.00 sec
  Variable Time Step ....... YES
  Maximum Trials ........... 8
  Number of Threads ........ 1
  Head Tolerance ........... 0.001524 m
  
  
  **************************        Volume        Volume
  Flow Routing Continuity        hectare-m      10^6 ltr
  **************************     ---------     ---------
  Dry Weather Inflow .......         0.124         1.242
  Wet Weather Inflow .......         0.000         0.000
  Groundwater Inflow .......         0.000         0.000
  RDII Inflow ..............         0.000         0.000
  External Inflow ..........         0.000         0.000
  External Outflow .........         0.118         1.185
  Flooding Loss ............         0.000         0.000
  Evaporation Loss .........         0.000         0.000
  Exfiltration Loss ........         0.000         0.000
  Initial Stored Volume ....         0.001         0.007
  Final Stored Volume ......         0.006         0.063
  Continuity Error (%) .....         0.147
  
  
  ***************************
  Time-Step Critical Elements
  ***************************
  None
  
  
  ********************************
  Highest Flow Instability Indexes
  ********************************
  Link C_5 (18)
  Link C_3 (17)
  Link C_4 (15)
  Link C_9 (12)
  Link C_6 (9)
  
  
  *************************
  Routing Time Step Summary
  *************************
  Minimum Time Step           :     3.36 sec
  Average Time Step           :     4.00 sec
  Maximum Time Step           :     4.00 sec
  Percent in Steady State     :     0.00
  Average Iterations per Step :     2.12
  Percent Not Converging      :     0.67
  
  
  ******************
  Node Depth Summary
  ******************
  
  ---------------------------------------------------------------------------------
                                 Average  Maximum  Maximum  Time of Max    Reported
                                   Depth    Depth      HGL   Occurrence   Max Depth
  Node                 Type       Meters   Meters   Meters  days hr:min      Meters
  ---------------------------------------------------------------------------------
  RO_2                 JUNCTION     0.20     0.26   103.07     0  21:59        0.26
  RO_3                 JUNCTION     0.04     0.07   103.07     0  21:56        0.07
  RO_4                 JUNCTION     3.11     3.23   103.07     0  21:56        3.23
  RO_5                 JUNCTION     3.11     3.23   103.07     0  21:56        3.23
  RO_6                 JUNCTION     0.48     0.53   103.07     0  21:56        0.53
  RO_7                 JUNCTION     0.45     0.49   103.07     0  19:17        0.49
  RO_8                 JUNCTION     0.40     0.44   103.07     0  19:16        0.44
  RO_9                 JUNCTION     0.33     0.37   103.07     0  21:55        0.37
  RO_10                JUNCTION     1.02     1.08   103.08     0  21:33        1.07
  RO_1                 OUTFALL      0.05     0.08   103.04     0  19:18        0.08
  BAZEN_1              STORAGE      0.55     0.80   100.44     0  19:06        0.80
  
  
  *******************
  Node Inflow Summary
  *******************
  
  -------------------------------------------------------------------------------------------------
                                  Maximum  Maximum                  Lateral       Total        Flow
                                  Lateral    Total  Time of Max      Inflow      Inflow     Balance
                                   Inflow   Inflow   Occurrence      Volume      Volume       Error
  Node                 Type           LPS      LPS  days hr:min    10^6 ltr    10^6 ltr     Percent
  -------------------------------------------------------------------------------------------------
  RO_2                 JUNCTION      0.00    31.34     0  21:56           0        1.19       0.274
  RO_3                 JUNCTION      0.00    31.37     0  21:56           0        1.19       0.100
  RO_4                 JUNCTION      0.00    33.45     0  21:54           0         1.2       0.635
  RO_5                 JUNCTION      0.00    36.49     0  19:10           0        1.22       0.349
  RO_6                 JUNCTION      0.00    50.13     0  00:47           0        1.27       0.556
  RO_7                 JUNCTION      0.00    59.29     0  00:50           0        1.32       0.584
  RO_8                 JUNCTION      0.00    65.75     0  01:15           0        1.36       0.702
  RO_9                 JUNCTION      0.00    47.44     0  01:14           0        1.31       0.660
  RO_10                JUNCTION      0.00    34.00     0  00:00           0        1.25       0.294
  RO_1                 OUTFALL       0.00    30.52     0  19:18           0        1.18       0.000
  BAZEN_1              STORAGE      15.00    15.00     0  00:00        1.24        1.25       0.010
  
  
  **********************
  Node Surcharge Summary
  **********************
  
  Surcharging occurs when water rises above the top of the highest conduit.
  ---------------------------------------------------------------------
                                               Max. Height   Min. Depth
                                   Hours       Above Crown    Below Rim
  Node                 Type      Surcharged         Meters       Meters
  ---------------------------------------------------------------------
  RO_4                 JUNCTION       22.55          2.228        0.000
  RO_5                 JUNCTION       22.55          2.228        0.000
  RO_10                JUNCTION       21.75          0.076        0.000
  
  
  *********************
  Node Flooding Summary
  *********************
  
  No nodes were flooded.
  
  
  **********************
  Storage Volume Summary
  **********************
  
  --------------------------------------------------------------------------------------------------
                         Average     Avg  Evap Exfil       Maximum     Max    Time of Max    Maximum
                          Volume    Pcnt  Pcnt  Pcnt        Volume    Pcnt     Occurrence    Outflow
  Storage Unit           1000 m3    Full  Loss  Loss       1000 m3    Full    days hr:min        LPS
  --------------------------------------------------------------------------------------------------
  BAZEN_1                  0.014      61     0     0         0.020      89       0  19:06      34.00
  
  
  ***********************
  Outfall Loading Summary
  ***********************
  
  -----------------------------------------------------------
                         Flow       Avg       Max       Total
                         Freq      Flow      Flow      Volume
  Outfall Node           Pcnt       LPS       LPS    10^6 ltr
  -----------------------------------------------------------
  RO_1                  94.25     15.18     30.52       1.185
  -----------------------------------------------------------
  System                94.25     15.18     30.52       1.185
  
  
  ********************
  Link Flow Summary
  ********************
  
  -----------------------------------------------------------------------------
                                 Maximum  Time of Max   Maximum    Max/    Max/
                                  |Flow|   Occurrence   |Veloc|    Full    Full
  Link                 Type          LPS  days hr:min     m/sec    Flow   Depth
  -----------------------------------------------------------------------------
  C_1                  CONDUIT     30.52     0  19:18      0.35    0.01    0.17
  C_2                  CONDUIT     31.34     0  21:56      1.26    0.01    0.16
  C_3                  CONDUIT     31.37     0  21:56      0.07    0.00    0.53
  C_4                  CONDUIT     33.45     0  21:54      0.64    0.19    1.00
  C_5                  CONDUIT     36.49     0  19:10      1.91    0.00    0.76
  C_6                  CONDUIT     50.13     0  00:47      1.20    0.03    0.51
  C_7                  CONDUIT     57.34     0  01:13      0.84    0.03    0.46
  C_8                  CONDUIT     65.75     0  01:15      0.88    0.04    0.40
  C_9                  CONDUIT     46.54     0  01:06      0.12    0.01    0.68
  P_1                  PUMP        34.00     0  00:00              1.00
  
  
  ***************************
  Flow Classification Summary
  ***************************
  
  -------------------------------------------------------------------------------------
                      Adjusted    ---------- Fraction of Time in Flow Class ---------- 
                       /Actual         Up    Down  Sub   Sup   Up    Down  Norm  Inlet 
  Conduit               Length    Dry  Dry   Dry   Crit  Crit  Crit  Crit  Ltd   Ctrl  
  -------------------------------------------------------------------------------------
  C_1                     1.00   0.05  0.00  0.00  0.94  0.00  0.00  0.00  0.00  0.00
  C_2                     1.00   0.05  0.00  0.00  0.94  0.00  0.00  0.00  0.95  0.00
  C_3                     1.00   0.01  0.04  0.00  0.95  0.00  0.00  0.00  0.00  0.00
  C_4                     1.00   0.01  0.00  0.00  0.99  0.00  0.00  0.00  0.00  0.00
  C_5                     1.00   0.01  0.00  0.00  0.99  0.00  0.00  0.00  0.02  0.00
  C_6                     1.00   0.01  0.00  0.00  0.97  0.02  0.00  0.00  0.00  0.00
  C_7                     1.00   0.01  0.00  0.00  0.99  0.00  0.00  0.00  0.02  0.00
  C_8                     1.00   0.01  0.00  0.00  0.99  0.00  0.00  0.00  0.01  0.00
  C_9                     1.00   0.00  0.01  0.00  0.99  0.00  0.00  0.00  0.00  0.00
  
  
  *************************
  Conduit Surcharge Summary
  *************************
  
  ----------------------------------------------------------------------------
                                                           Hours        Hours 
                         --------- Hours Full --------   Above Full   Capacity
  Conduit                Both Ends  Upstream  Dnstream   Normal Flow   Limited
  ----------------------------------------------------------------------------
  C_3                         0.01      0.01     21.77      0.01         0.01
  C_4                        22.55     22.55     22.55      0.01         3.25
  C_5                         0.01      0.01     22.55      0.01         0.01
  C_9                         0.01      0.01     21.75      0.01         0.01
  
  
  ***************
  Pumping Summary
  ***************
  
  ---------------------------------------------------------------------------------------------------------
                                                  Min       Avg       Max     Total     Power    % Time Off
                        Percent   Number of      Flow      Flow      Flow    Volume     Usage    Pump Curve
  Pump                 Utilized   Start-Ups       LPS       LPS       LPS  10^6 ltr     Kw-hr    Low   High
  ---------------------------------------------------------------------------------------------------------
  P_1                     47.77          52      0.00     31.28     34.00     1.237      9.63    0.0    0.3
  

  Analysis begun on:  Wed Jan 02 04:53:18 2019
  Analysis ended on:  Wed Jan 02 04:53:18 2019
  Total elapsed time: < 1 sec