
  EPA STORM WATER MANAGEMENT MODEL - VERSION 5.1 (Build 5.1.012)
  --------------------------------------------------------------

  
  *************
  Element Count
  *************
  Number of rain gages ...... 0
  Number of subcatchments ... 0
  Number of nodes ........... 38
  Number of links ........... 34
  Number of pollutants ...... 0
  Number of land uses ....... 0
  
  
  ************
  Node Summary
  ************
                                           Invert      Max.    Ponded    External
  Name                 Type                 Elev.     Depth      Area    Inflow  
  -------------------------------------------------------------------------------
  3                    JUNCTION              0.17      1.00       0.0
  4                    JUNCTION              0.00      1.00       0.0
  A3                   JUNCTION              0.17      1.00       0.0
  A4                   JUNCTION              0.00      1.00       0.0
  A5                   JUNCTION             -0.01      1.00       0.0
  B10                  JUNCTION             -0.02      1.00       0.0
  B11                  JUNCTION             -0.03      1.00       0.0
  B3                   JUNCTION              0.17      1.00       0.0
  B4                   JUNCTION              0.00      1.00       0.0
  B5                   JUNCTION             -0.00      1.00       0.0
  B6                   JUNCTION             -0.01      1.00       0.0
  B7                   JUNCTION             -0.01      1.00       0.0
  B8                   JUNCTION             -0.02      1.00       0.0
  B9                   JUNCTION             -0.02      1.00       0.0
  C10                  JUNCTION             -0.01      1.00       0.0
  C11                  JUNCTION             -0.01      1.00       0.0
  C12                  JUNCTION             -0.02      1.00       0.0
  C13                  JUNCTION             -0.02      1.00       0.0
  C14                  JUNCTION             -0.02      1.00       0.0
  C15                  JUNCTION             -0.02      1.00       0.0
  C16                  JUNCTION             -0.02      1.00       0.0
  C17                  JUNCTION             -0.03      1.00       0.0
  C18                  JUNCTION             -0.03      1.00       0.0
  C3                   JUNCTION              0.17      1.00       0.0
  C4                   JUNCTION              0.00      1.00       0.0
  C5                   JUNCTION             -0.00      1.00       0.0
  C6                   JUNCTION             -0.00      1.00       0.0
  C7                   JUNCTION             -0.01      1.00       0.0
  C8                   JUNCTION             -0.01      1.00       0.0
  C9                   JUNCTION             -0.01      1.00       0.0
  A2                   OUTFALL               0.34      1.00       0.0
  B2                   OUTFALL               0.34      1.00       0.0
  C2                   OUTFALL               0.34      1.00       0.0
  OUTFALL1             OUTFALL              -0.03      1.00       0.0
  OUTFALLA             OUTFALL              -0.03      1.00       0.0
  OUTFALLB             OUTFALL              -0.03      1.00       0.0
  OUTFALLC             OUTFALL              -0.03      1.00       0.0
  2                    STORAGE               0.34      1.00       0.0
  
  
  ************
  Link Summary
  ************
  Name             From Node        To Node          Type            Length    %Slope Roughness
  ---------------------------------------------------------------------------------------------
  2                2                3                CONDUIT            1.0   17.0422    0.0110
  3                3                4                CONDUIT            1.0   17.0422    0.0110
  5                4                OUTFALL1         CONDUIT           15.0    0.2000    0.0110
  A2               A2               A3               CONDUIT            1.0   17.0422    0.0110
  A3               A3               A4               CONDUIT            1.0   17.0422    0.0110
  A4               A4               A5               CONDUIT            7.5    0.2000    0.0110
  A5               A5               OUTFALLA         CONDUIT            7.5    0.2000    0.0110
  B10              B9               B10              CONDUIT            2.0    0.2000    0.0110
  B11              B10              B11              CONDUIT            2.0    0.2000    0.0110
  B12              B11              OUTFALLB         CONDUIT            1.0    0.2000    0.0110
  B2               B2               B3               CONDUIT            1.0   17.0422    0.0110
  B3               B3               B4               CONDUIT            1.0   17.0422    0.0110
  B5               B4               B5               CONDUIT            2.0    0.2000    0.0110
  B6               B5               B6               CONDUIT            2.0    0.2000    0.0110
  B7               B6               B7               CONDUIT            2.0    0.2000    0.0110
  B8               B7               B8               CONDUIT            2.0    0.2000    0.0110
  B9               B8               B9               CONDUIT            2.0    0.2000    0.0110
  C10              C9               C10              CONDUIT            1.0    0.2000    0.0110
  C11              C10              C11              CONDUIT            1.0    0.2000    0.0110
  C12              C11              C12              CONDUIT            1.0    0.2000    0.0110
  C13              C12              C13              CONDUIT            1.0    0.2000    0.0110
  C14              C13              C14              CONDUIT            1.0    0.2000    0.0110
  C15              C14              C15              CONDUIT            1.0    0.2000    0.0110
  C16              C15              C16              CONDUIT            1.0    0.2000    0.0110
  C17              C16              C17              CONDUIT            1.0    0.2000    0.0110
  C18              C17              C18              CONDUIT            1.0    0.2000    0.0110
  C19              C18              OUTFALLC         CONDUIT            1.0    0.2000    0.0110
  C2               C2               C3               CONDUIT            1.0   17.0422    0.0110
  C3               C3               C4               CONDUIT            1.0   17.0422    0.0110
  C5               C4               C5               CONDUIT            1.0    0.2000    0.0110
  C6               C5               C6               CONDUIT            1.0    0.2000    0.0110
  C7               C6               C7               CONDUIT            1.0    0.2000    0.0110
  C8               C7               C8               CONDUIT            1.0    0.2000    0.0110
  C9               C8               C9               CONDUIT            1.0    0.2000    0.0110
  
  
  *********************
  Cross Section Summary
  *********************
                                        Full     Full     Hyd.     Max.   No. of     Full
  Conduit          Shape               Depth     Area     Rad.    Width  Barrels     Flow
  ---------------------------------------------------------------------------------------
  2                TRAPEZOIDAL          1.00     2.40     0.46     4.80        1 53795.56
  3                TRAPEZOIDAL          1.00     1.80     0.44     3.60        1 38908.29
  5                TRAPEZOIDAL          1.00     1.19     0.38     2.38        1  2550.76
  A2               TRAPEZOIDAL          1.00     2.40     0.46     4.80        1 53795.56
  A3               TRAPEZOIDAL          1.00     1.80     0.44     3.60        1 38908.29
  A4               TRAPEZOIDAL          1.00     1.19     0.38     2.38        1  2550.76
  A5               TRAPEZOIDAL          1.00     1.19     0.38     2.38        1  2550.76
  B10              TRAPEZOIDAL          1.00     1.19     0.38     2.38        1  2550.76
  B11              TRAPEZOIDAL          1.00     1.19     0.38     2.38        1  2550.76
  B12              TRAPEZOIDAL          1.00     1.19     0.38     2.38        1  2550.76
  B2               TRAPEZOIDAL          1.00     2.40     0.46     4.80        1 53795.56
  B3               TRAPEZOIDAL          1.00     1.80     0.44     3.60        1 38908.29
  B5               TRAPEZOIDAL          1.00     1.19     0.38     2.38        1  2550.76
  B6               TRAPEZOIDAL          1.00     1.19     0.38     2.38        1  2550.76
  B7               TRAPEZOIDAL          1.00     1.19     0.38     2.38        1  2550.76
  B8               TRAPEZOIDAL          1.00     1.19     0.38     2.38        1  2550.76
  B9               TRAPEZOIDAL          1.00     1.19     0.38     2.38        1  2550.76
  C10              TRAPEZOIDAL          1.00     1.19     0.38     2.38        1  2550.76
  C11              TRAPEZOIDAL          1.00     1.19     0.38     2.38        1  2550.76
  C12              TRAPEZOIDAL          1.00     1.19     0.38     2.38        1  2550.76
  C13              TRAPEZOIDAL          1.00     1.19     0.38     2.38        1  2550.76
  C14              TRAPEZOIDAL          1.00     1.19     0.38     2.38        1  2550.76
  C15              TRAPEZOIDAL          1.00     1.19     0.38     2.38        1  2550.76
  C16              TRAPEZOIDAL          1.00     1.19     0.38     2.38        1  2550.76
  C17              TRAPEZOIDAL          1.00     1.19     0.38     2.38        1  2550.76
  C18              TRAPEZOIDAL          1.00     1.19     0.38     2.38        1  2550.76
  C19              TRAPEZOIDAL          1.00     1.19     0.38     2.38        1  2550.76
  C2               TRAPEZOIDAL          1.00     2.40     0.46     4.80        1 53795.56
  C3               TRAPEZOIDAL          1.00     1.80     0.44     3.60        1 38908.29
  C5               TRAPEZOIDAL          1.00     1.19     0.38     2.38        1  2550.76
  C6               TRAPEZOIDAL          1.00     1.19     0.38     2.38        1  2550.76
  C7               TRAPEZOIDAL          1.00     1.19     0.38     2.38        1  2550.76
  C8               TRAPEZOIDAL          1.00     1.19     0.38     2.38        1  2550.76
  C9               TRAPEZOIDAL          1.00     1.19     0.38     2.38        1  2550.76
  
  
  
  *********************************************************
  NOTE: The summary statistics displayed in this report are
  based on results found at every computational time step,  
  not just on results from each reporting time step.
  *********************************************************
  
  ****************
  Analysis Options
  ****************
  Flow Units ............... LPS
  Process Models:
    Rainfall/Runoff ........ NO
    RDII ................... NO
    Snowmelt ............... NO
    Groundwater ............ NO
    Flow Routing ........... YES
    Ponding Allowed ........ NO
    Water Quality .......... NO
  Flow Routing Method ...... DYNWAVE
  Starting Date ............ 01/01/2002 00:00:00
  Ending Date .............. 01/02/2002 01:00:00
  Antecedent Dry Days ...... 5.0
  Report Time Step ......... 00:01:00
  Routing Time Step ........ 0.10 sec
  Variable Time Step ....... YES
  Maximum Trials ........... 20
  Number of Threads ........ 1
  Head Tolerance ........... 0.000010 m
  
  
  **************************        Volume        Volume
  Flow Routing Continuity        hectare-m      10^6 ltr
  **************************     ---------     ---------
  Dry Weather Inflow .......         0.000         0.000
  Wet Weather Inflow .......         0.000         0.000
  Groundwater Inflow .......         0.000         0.000
  RDII Inflow ..............         0.000         0.000
  External Inflow ..........         0.000         0.000
  External Outflow .........         0.639         6.387
  Flooding Loss ............         0.000         0.000
  Evaporation Loss .........         0.000         0.000
  Exfiltration Loss ........         0.000         0.000
  Initial Stored Volume ....       159.982      1599.838
  Final Stored Volume ......       159.344      1593.452
  Continuity Error (%) .....        -0.000
  
  
  ***************************
  Time-Step Critical Elements
  ***************************
  None
  
  
  ********************************
  Highest Flow Instability Indexes
  ********************************
  All links are stable.
  
  
  *************************
  Routing Time Step Summary
  *************************
  Minimum Time Step           :     0.10 sec
  Average Time Step           :     0.00 sec
  Maximum Time Step           :     0.10 sec
  Percent in Steady State     :    96.00
  Average Iterations per Step :     0.08
  Percent Not Converging      :     0.01
  
  
  ******************
  Node Depth Summary
  ******************
  
  ---------------------------------------------------------------------------------
                                 Average  Maximum  Maximum  Time of Max    Reported
                                   Depth    Depth      HGL   Occurrence   Max Depth
  Node                 Type       Meters   Meters   Meters  days hr:min      Meters
  ---------------------------------------------------------------------------------
  3                    JUNCTION     0.00     0.09     0.26     1  00:00        0.09
  4                    JUNCTION     0.01     0.26     0.26     1  00:00        0.26
  A3                   JUNCTION     0.00     0.10     0.26     1  00:00        0.10
  A4                   JUNCTION     0.01     0.26     0.26     1  00:00        0.26
  A5                   JUNCTION     0.01     0.26     0.24     1  00:00        0.26
  B10                  JUNCTION     0.01     0.25     0.23     1  00:00        0.25
  B11                  JUNCTION     0.01     0.25     0.22     1  00:00        0.25
  B3                   JUNCTION     0.00     0.10     0.26     1  00:00        0.10
  B4                   JUNCTION     0.01     0.26     0.26     1  00:00        0.26
  B5                   JUNCTION     0.01     0.26     0.26     1  00:00        0.26
  B6                   JUNCTION     0.01     0.26     0.25     1  00:00        0.26
  B7                   JUNCTION     0.01     0.26     0.25     1  00:00        0.26
  B8                   JUNCTION     0.01     0.26     0.24     1  00:00        0.26
  B9                   JUNCTION     0.01     0.26     0.24     1  00:00        0.26
  C10                  JUNCTION     0.01     0.26     0.25     1  00:00        0.26
  C11                  JUNCTION     0.01     0.26     0.25     1  00:00        0.26
  C12                  JUNCTION     0.01     0.26     0.24     1  00:00        0.26
  C13                  JUNCTION     0.01     0.26     0.24     1  00:00        0.26
  C14                  JUNCTION     0.01     0.26     0.24     1  00:00        0.26
  C15                  JUNCTION     0.01     0.26     0.23     1  00:00        0.26
  C16                  JUNCTION     0.01     0.25     0.23     1  00:00        0.25
  C17                  JUNCTION     0.01     0.25     0.23     1  00:00        0.25
  C18                  JUNCTION     0.01     0.25     0.22     1  00:00        0.25
  C3                   JUNCTION     0.00     0.10     0.26     1  00:00        0.10
  C4                   JUNCTION     0.01     0.26     0.26     1  00:00        0.26
  C5                   JUNCTION     0.01     0.26     0.26     1  00:00        0.26
  C6                   JUNCTION     0.01     0.26     0.26     1  00:00        0.26
  C7                   JUNCTION     0.01     0.26     0.26     1  00:00        0.26
  C8                   JUNCTION     0.01     0.26     0.25     1  00:00        0.26
  C9                   JUNCTION     0.01     0.26     0.25     1  00:00        0.26
  A2                   OUTFALL      0.01     0.16     0.50     1  00:00        0.16
  B2                   OUTFALL      0.01     0.16     0.50     1  00:00        0.16
  C2                   OUTFALL      0.01     0.16     0.50     1  00:00        0.16
  OUTFALL1             OUTFALL      0.01     0.23     0.20     1  00:00        0.23
  OUTFALLA             OUTFALL      0.01     0.24     0.21     1  00:00        0.24
  OUTFALLB             OUTFALL      0.01     0.24     0.21     1  00:00        0.24
  OUTFALLC             OUTFALL      0.01     0.24     0.21     1  00:00        0.24
  2                    STORAGE      0.01     0.16     0.50     1  00:00        0.16
  
  
  *******************
  Node Inflow Summary
  *******************
  
  -------------------------------------------------------------------------------------------------
                                  Maximum  Maximum                  Lateral       Total        Flow
                                  Lateral    Total  Time of Max      Inflow      Inflow     Balance
                                   Inflow   Inflow   Occurrence      Volume      Volume       Error
  Node                 Type           LPS      LPS  days hr:min    10^6 ltr    10^6 ltr     Percent
  -------------------------------------------------------------------------------------------------
  3                    JUNCTION      0.00    70.76     1  00:00           0        6.39       0.000
  4                    JUNCTION      0.00    70.76     1  00:00           0        6.39       0.011
  A3                   JUNCTION      0.00    74.60     1  00:00           0        6.71       0.000
  A4                   JUNCTION      0.00    74.60     1  00:00           0        6.71       0.005
  A5                   JUNCTION      0.00    74.60     1  00:00           0        6.71       0.011
  B10                  JUNCTION      0.00    74.60     1  00:00           0        6.71       0.002
  B11                  JUNCTION      0.00    74.60     1  00:00           0        6.71       0.002
  B3                   JUNCTION      0.00    74.60     1  00:00           0        6.71       0.000
  B4                   JUNCTION      0.00    74.60     1  00:00           0        6.71       0.002
  B5                   JUNCTION      0.00    74.60     1  00:00           0        6.71       0.003
  B6                   JUNCTION      0.00    74.60     1  00:00           0        6.71       0.003
  B7                   JUNCTION      0.00    74.60     1  00:00           0        6.71       0.002
  B8                   JUNCTION      0.00    74.60     1  00:00           0        6.71       0.002
  B9                   JUNCTION      0.00    74.60     1  00:00           0        6.71       0.002
  C10                  JUNCTION      0.00    74.60     1  00:00           0        6.71       0.001
  C11                  JUNCTION      0.00    74.60     1  00:00           0        6.71       0.001
  C12                  JUNCTION      0.00    74.60     1  00:00           0        6.71       0.001
  C13                  JUNCTION      0.00    74.60     1  00:00           0        6.71       0.001
  C14                  JUNCTION      0.00    74.60     1  00:00           0        6.71       0.001
  C15                  JUNCTION      0.00    74.60     1  00:00           0        6.71       0.001
  C16                  JUNCTION      0.00    74.60     1  00:00           0        6.71       0.001
  C17                  JUNCTION      0.00    74.60     1  00:00           0        6.71       0.001
  C18                  JUNCTION      0.00    74.60     1  00:00           0        6.71       0.001
  C3                   JUNCTION      0.00    74.60     1  00:00           0        6.71       0.000
  C4                   JUNCTION      0.00    74.60     1  00:00           0        6.71       0.001
  C5                   JUNCTION      0.00    74.60     1  00:00           0        6.71       0.001
  C6                   JUNCTION      0.00    74.60     1  00:00           0        6.71       0.001
  C7                   JUNCTION      0.00    74.60     1  00:00           0        6.71       0.001
  C8                   JUNCTION      0.00    74.60     1  00:00           0        6.71       0.001
  C9                   JUNCTION      0.00    74.60     1  00:00           0        6.71       0.001
  A2                   OUTFALL       0.00    74.60     1  00:00           0        6.71       0.000
  B2                   OUTFALL       0.00    74.60     1  00:00           0        6.71       0.000
  C2                   OUTFALL       0.00    74.60     1  00:00           0        6.71       0.000
  OUTFALL1             OUTFALL       0.00    70.76     1  00:00           0        6.39       0.000
  OUTFALLA             OUTFALL       0.00    74.60     1  00:00           0        6.71       0.000
  OUTFALLB             OUTFALL       0.00    74.60     1  00:00           0        6.71       0.000
  OUTFALLC             OUTFALL       0.00    74.60     1  00:00           0        6.71       0.000
  2                    STORAGE       0.00     0.00     0  00:00           0    1.6e+003      -0.000
  
  
  **********************
  Node Surcharge Summary
  **********************
  
  No nodes were surcharged.
  
  
  *********************
  Node Flooding Summary
  *********************
  
  No nodes were flooded.
  
  
  **********************
  Storage Volume Summary
  **********************
  
  --------------------------------------------------------------------------------------------------
                         Average     Avg  Evap Exfil       Maximum     Max    Time of Max    Maximum
                          Volume    Pcnt  Pcnt  Pcnt        Volume    Pcnt     Occurrence    Outflow
  Storage Unit           1000 m3    Full  Loss  Loss       1000 m3    Full    days hr:min        LPS
  --------------------------------------------------------------------------------------------------
  2                       63.734       1     0     0      1593.863      16       1  00:00      70.76
  
  
  ***********************
  Outfall Loading Summary
  ***********************
  
  -----------------------------------------------------------
                         Flow       Avg       Max       Total
                         Freq      Flow      Flow      Volume
  Outfall Node           Pcnt       LPS       LPS    10^6 ltr
  -----------------------------------------------------------
  A2                     4.00     74.60     74.60       6.715
  B2                     4.00     74.60     74.60       6.714
  C2                     4.00     74.60     74.60       6.714
  OUTFALL1               4.00     70.75     70.76       6.391
  OUTFALLA               4.00     74.60     74.60       6.714
  OUTFALLB               4.00     74.60     74.60       6.713
  OUTFALLC               4.00     74.60     74.60       6.713
  -----------------------------------------------------------
  System                 4.00    518.36    518.37      46.673
  
  
  ********************
  Link Flow Summary
  ********************
  
  -----------------------------------------------------------------------------
                                 Maximum  Time of Max   Maximum    Max/    Max/
                                  |Flow|   Occurrence   |Veloc|    Full    Full
  Link                 Type          LPS  days hr:min     m/sec    Flow   Depth
  -----------------------------------------------------------------------------
  2                    CONDUIT     70.76     1  00:00      1.84    0.00    0.13
  3                    CONDUIT     70.76     1  00:00      1.27    0.00    0.18
  5                    CONDUIT     70.76     1  00:00      0.98    0.03    0.25
  A2                   CONDUIT     74.60     1  00:00      1.84    0.00    0.13
  A3                   CONDUIT     74.60     1  00:00      1.29    0.00    0.18
  A4                   CONDUIT     74.60     1  00:00      0.92    0.03    0.26
  A5                   CONDUIT     74.60     1  00:00      1.01    0.03    0.25
  B10                  CONDUIT     74.60     1  00:00      0.96    0.03    0.26
  B11                  CONDUIT     74.60     1  00:00      0.99    0.03    0.25
  B12                  CONDUIT     74.60     1  00:00      1.05    0.03    0.24
  B2                   CONDUIT     74.60     1  00:00      1.84    0.00    0.13
  B3                   CONDUIT     74.60     1  00:00      1.29    0.00    0.18
  B5                   CONDUIT     74.60     1  00:00      0.91    0.03    0.26
  B6                   CONDUIT     74.60     1  00:00      0.91    0.03    0.26
  B7                   CONDUIT     74.60     1  00:00      0.92    0.03    0.26
  B8                   CONDUIT     74.60     1  00:00      0.93    0.03    0.26
  B9                   CONDUIT     74.60     1  00:00      0.94    0.03    0.26
  C10                  CONDUIT     74.60     1  00:00      0.92    0.03    0.26
  C11                  CONDUIT     74.60     1  00:00      0.92    0.03    0.26
  C12                  CONDUIT     74.60     1  00:00      0.93    0.03    0.26
  C13                  CONDUIT     74.60     1  00:00      0.93    0.03    0.26
  C14                  CONDUIT     74.60     1  00:00      0.94    0.03    0.26
  C15                  CONDUIT     74.60     1  00:00      0.95    0.03    0.26
  C16                  CONDUIT     74.60     1  00:00      0.96    0.03    0.26
  C17                  CONDUIT     74.60     1  00:00      0.98    0.03    0.25
  C18                  CONDUIT     74.60     1  00:00      1.00    0.03    0.25
  C19                  CONDUIT     74.60     1  00:00      1.05    0.03    0.24
  C2                   CONDUIT     74.60     1  00:00      1.84    0.00    0.13
  C3                   CONDUIT     74.60     1  00:00      1.28    0.00    0.18
  C5                   CONDUIT     74.60     1  00:00      0.90    0.03    0.26
  C6                   CONDUIT     74.60     1  00:00      0.91    0.03    0.26
  C7                   CONDUIT     74.60     1  00:00      0.91    0.03    0.26
  C8                   CONDUIT     74.60     1  00:00      0.91    0.03    0.26
  C9                   CONDUIT     74.60     1  00:00      0.91    0.03    0.26
  
  
  ***************************
  Flow Classification Summary
  ***************************
  
  -------------------------------------------------------------------------------------
                      Adjusted    ---------- Fraction of Time in Flow Class ---------- 
                       /Actual         Up    Down  Sub   Sup   Up    Down  Norm  Inlet 
  Conduit               Length    Dry  Dry   Dry   Crit  Crit  Crit  Crit  Ltd   Ctrl  
  -------------------------------------------------------------------------------------
  2                       1.00   0.00  0.00  0.00  0.00  0.04  0.00  0.00  0.00  0.00
  3                       1.00   0.00  0.00  0.00  0.00  0.04  0.00  0.00  0.04  0.00
  5                       1.00   0.00  0.00  0.00  0.04  0.00  0.00  0.00  0.00  0.00
  A2                      1.00   0.00  0.00  0.00  0.00  0.04  0.00  0.00  0.00  0.00
  A3                      1.00   0.00  0.00  0.00  0.00  0.04  0.00  0.00  0.04  0.00
  A4                      1.00   0.00  0.00  0.00  0.04  0.00  0.00  0.00  0.00  0.00
  A5                      1.00   0.00  0.00  0.00  0.04  0.00  0.00  0.00  0.00  0.00
  B10                     1.00   0.00  0.00  0.00  0.04  0.00  0.00  0.00  0.00  0.00
  B11                     1.00   0.00  0.00  0.00  0.04  0.00  0.00  0.00  0.00  0.00
  B12                     1.00   0.00  0.00  0.00  0.04  0.00  0.00  0.00  0.00  0.00
  B2                      1.00   0.00  0.00  0.00  0.00  0.04  0.00  0.00  0.00  0.00
  B3                      1.00   0.00  0.00  0.00  0.00  0.04  0.00  0.00  0.04  0.00
  B5                      1.00   0.00  0.00  0.00  0.04  0.00  0.00  0.00  0.00  0.00
  B6                      1.00   0.00  0.00  0.00  0.04  0.00  0.00  0.00  0.00  0.00
  B7                      1.00   0.00  0.00  0.00  0.04  0.00  0.00  0.00  0.00  0.00
  B8                      1.00   0.00  0.00  0.00  0.04  0.00  0.00  0.00  0.00  0.00
  B9                      1.00   0.00  0.00  0.00  0.04  0.00  0.00  0.00  0.00  0.00
  C10                     1.00   0.00  0.00  0.00  0.04  0.00  0.00  0.00  0.00  0.00
  C11                     1.00   0.00  0.00  0.00  0.04  0.00  0.00  0.00  0.00  0.00
  C12                     1.00   0.00  0.00  0.00  0.04  0.00  0.00  0.00  0.00  0.00
  C13                     1.00   0.00  0.00  0.00  0.04  0.00  0.00  0.00  0.00  0.00
  C14                     1.00   0.00  0.00  0.00  0.04  0.00  0.00  0.00  0.00  0.00
  C15                     1.00   0.00  0.00  0.00  0.04  0.00  0.00  0.00  0.00  0.00
  C16                     1.00   0.00  0.00  0.00  0.04  0.00  0.00  0.00  0.00  0.00
  C17                     1.00   0.00  0.00  0.00  0.04  0.00  0.00  0.00  0.00  0.00
  C18                     1.00   0.00  0.00  0.00  0.04  0.00  0.00  0.00  0.00  0.00
  C19                     1.00   0.00  0.00  0.00  0.04  0.00  0.00  0.00  0.00  0.00
  C2                      1.00   0.00  0.00  0.00  0.00  0.04  0.00  0.00  0.00  0.00
  C3                      1.00   0.00  0.00  0.00  0.00  0.04  0.00  0.00  0.04  0.00
  C5                      1.00   0.00  0.00  0.00  0.04  0.00  0.00  0.00  0.00  0.00
  C6                      1.00   0.00  0.00  0.00  0.04  0.00  0.00  0.00  0.00  0.00
  C7                      1.00   0.00  0.00  0.00  0.04  0.00  0.00  0.00  0.00  0.00
  C8                      1.00   0.00  0.00  0.00  0.04  0.00  0.00  0.00  0.00  0.00
  C9                      1.00   0.00  0.00  0.00  0.04  0.00  0.00  0.00  0.00  0.00
  
  
  *************************
  Conduit Surcharge Summary
  *************************
  
  No conduits were surcharged.
  

  Analysis begun on:  Wed Jan 02 04:53:19 2019
  Analysis ended on:  Wed Jan 02 04:54:02 2019
  Total elapsed time: 00:00:43