
  EPA STORM WATER MANAGEMENT MODEL - VERSION 5.1 (Build 5.1.012)
  --------------------------------------------------------------

  WARNING 01: wet weather time step reduced to recording interval for Rain Gage RG_SEWER_RAINFALL
  WARNING 02: maximum depth increased for Node 52
  WARNING 02: maximum depth increased for Node 903
  WARNING 02: maximum depth increased for Node 919
  WARNING 02: maximum depth increased for Node 920
  WARNING 02: maximum depth increased for Node 921
  WARNING 02: maximum depth increased for Node 925
  WARNING 02: maximum depth increased for Node 926
  
  *********************************************************
  NOTE: The summary statistics displayed in this report are
  based on results found at every computational time step,  
  not just on results from each reporting time step.
  *********************************************************
  
  ****************
  Analysis Options
  ****************
  Flow Units ............... CFS
  Process Models:
    Rainfall/Runoff ........ YES
    RDII ................... NO
    Snowmelt ............... NO
    Groundwater ............ NO
    Flow Routing ........... YES
    Ponding Allowed ........ NO
    Water Quality .......... NO
  Infiltration Method ...... HORTON
  Flow Routing Method ...... DYNWAVE
  Starting Date ............ 01/01/2002 00:00:00
  Ending Date .............. 01/01/2002 23:00:00
  Antecedent Dry Days ...... 5.0
  Report Time Step ......... 00:05:00
  Wet Time Step ............ 00:15:00
  Dry Time Step ............ 23:00:00
  Routing Time Step ........ 30.00 sec
  Variable Time Step ....... YES
  Maximum Trials ........... 4
  Number of Threads ........ 1
  Head Tolerance ........... 0.005000 ft
  
  
  **************************        Volume         Depth
  Runoff Quantity Continuity     acre-feet        inches
  **************************     ---------       -------
  Total Precipitation ......        33.750         4.500
  Evaporation Loss .........         0.000         0.000
  Infiltration Loss ........         0.000         0.000
  Surface Runoff ...........        33.971         4.529
  Final Storage ............         0.000         0.000
  Continuity Error (%) .....        -0.657
  
  
  **************************        Volume        Volume
  Flow Routing Continuity        acre-feet      10^6 gal
  **************************     ---------     ---------
  Dry Weather Inflow .......         4.968         1.619
  Wet Weather Inflow .......        33.976        11.072
  Groundwater Inflow .......         0.000         0.000
  RDII Inflow ..............         0.000         0.000
  External Inflow ..........         0.000         0.000
  External Outflow .........         5.395         1.758
  Flooding Loss ............        33.584        10.944
  Evaporation Loss .........         0.000         0.000
  Exfiltration Loss ........         0.000         0.000
  Initial Stored Volume ....         0.017         0.006
  Final Stored Volume ......         0.019         0.006
  Continuity Error (%) .....        -0.093
  
  
  ***************************
  Time-Step Critical Elements
  ***************************
  Link 940 (52.63%)
  Link 939 (12.49%)
  Link 947 (8.72%)
  Link 937 (5.87%)
  Link 911 (5.80%)
  
  
  ********************************
  Highest Flow Instability Indexes
  ********************************
  Link 940 (66)
  Link P51 (65)
  Link FM51 (61)
  Link 947 (54)
  Link 53 (3)
  
  
  *************************
  Routing Time Step Summary
  *************************
  Minimum Time Step           :     0.50 sec
  Average Time Step           :    15.01 sec
  Maximum Time Step           :    30.00 sec
  Percent in Steady State     :    -0.00
  Average Iterations per Step :     3.59
  Percent Not Converging      :    72.78
  
  
  ***************************
  Subcatchment Runoff Summary
  ***************************
  
  --------------------------------------------------------------------------------------------------------
                            Total      Total      Total      Total      Total       Total     Peak  Runoff
                           Precip      Runon       Evap      Infil     Runoff      Runoff   Runoff   Coeff
  Subcatchment                 in         in         in         in         in    10^6 gal      CFS
  --------------------------------------------------------------------------------------------------------
  SC_SEWER_44                5.75       0.00       0.00       0.00       5.78        0.78    17.65   1.005
  SC_SEWER_52                5.75       0.00       0.00       0.00       5.78        0.78    17.65   1.005
  SC_SEWER_54                5.75       0.00       0.00       0.00       5.78        0.78    17.65   1.005
  SC_SEWER_901               5.75       0.00       0.00       0.00       5.78        0.78    17.65   1.005
  SC_SEWER_917               5.75       0.00       0.00       0.00       5.78        0.78    17.65   1.005
  SC_SEWER_918               5.75       0.00       0.00       0.00       5.78        0.78    17.65   1.005
  SC_SEWER_919               5.75       0.00       0.00       0.00       5.78        0.78    17.65   1.005
  SC_SEWER_920               3.25       0.00       0.00       0.00       3.28        0.44    10.08   1.008
  SC_SEWER_921               3.25       0.00       0.00       0.00       3.28        0.44    10.08   1.008
  SC_SEWER_922               3.25       0.00       0.00       0.00       3.28        0.44    10.08   1.008
  SC_SEWER_923               3.25       0.00       0.00       0.00       3.28        0.44    10.08   1.008
  SC_SEWER_924               3.25       0.00       0.00       0.00       3.28        0.44    10.08   1.008
  SC_SEWER_925               3.25       0.00       0.00       0.00       3.28        0.44    10.08   1.008
  SC_SEWER_926               3.25       0.00       0.00       0.00       3.28        0.44    10.08   1.008
  SC_SEWER_927               3.25       0.00       0.00       0.00       3.28        0.44    10.08   1.008
  SC_SEWER_934               3.25       0.00       0.00       0.00       3.28        0.44    10.08   1.008
  SC_SEWER_JC48              5.75       0.00       0.00       0.00       5.78        0.78    17.65   1.005
  SC_SEWER_OUTLET94          5.75       0.00       0.00       0.00       5.78        0.78    17.65   1.005
  
  
  ******************
  Node Depth Summary
  ******************
  
  ---------------------------------------------------------------------------------
                                 Average  Maximum  Maximum  Time of Max    Reported
                                   Depth    Depth      HGL   Occurrence   Max Depth
  Node                 Type         Feet     Feet     Feet  days hr:min        Feet
  ---------------------------------------------------------------------------------
  44                   JUNCTION     0.43     2.20   278.00     0  00:07        2.20
  52                   JUNCTION     6.08   178.25   470.45     0  01:30      178.25
  54                   JUNCTION     0.94     2.40   292.90     0  00:04        2.40
  901                  JUNCTION     0.49     1.20   279.00     0  00:06        1.20
  903                  JUNCTION     0.25     0.93   282.13     0  00:05        0.93
  917                  JUNCTION     0.19     0.80   284.00     0  00:05        0.80
  918                  JUNCTION     0.35     1.20   281.00     0  00:06        1.20
  919                  JUNCTION     0.42     1.20   275.40     0  00:05        1.20
  920                  JUNCTION     0.45     1.20   274.00     0  00:04        1.20
  921                  JUNCTION     0.40     1.20   296.80     0  00:04        1.20
  922                  JUNCTION     0.65     2.00   296.00     0  00:03        2.00
  923                  JUNCTION     0.80     2.20   295.00     0  00:03        2.20
  924                  JUNCTION     0.76     2.20   294.00     0  00:04        2.20
  925                  JUNCTION     0.31     1.00   298.40     0  00:08        1.00
  926                  JUNCTION     0.32     0.87   299.67     0  00:03        0.87
  927                  JUNCTION     0.21     0.80   302.00     0  00:04        0.80
  934                  JUNCTION     4.99     5.00   280.00     0  00:00        5.00
  JC48                 JUNCTION    70.84  1007.00  1281.00     0  00:41     1007.00
  OUTLET94             OUTFALL      0.49     0.75   289.75     0  00:12        0.75
  WW48                 STORAGE      1.34     8.09   274.09     0  00:33        8.02
  
  
  *******************
  Node Inflow Summary
  *******************
  
  -------------------------------------------------------------------------------------------------
                                  Maximum  Maximum                  Lateral       Total        Flow
                                  Lateral    Total  Time of Max      Inflow      Inflow     Balance
                                   Inflow   Inflow   Occurrence      Volume      Volume       Error
  Node                 Type           CFS      CFS  days hr:min    10^6 gal    10^6 gal     Percent
  -------------------------------------------------------------------------------------------------
  44                   JUNCTION     17.90    19.15     0  01:00       0.883        1.23       0.032
  52                   JUNCTION     17.65    30.73     0  00:45       0.785        1.98       0.145
  54                   JUNCTION     17.90    44.37     0  01:30       0.883        2.81      -0.003
  901                  JUNCTION     17.90    19.95     0  01:00       0.883         1.2      -0.178
  903                  JUNCTION      0.00     1.59     0  00:05           0       0.193       0.106
  917                  JUNCTION     17.90    17.90     0  01:00       0.883       0.882       0.020
  918                  JUNCTION     17.90    18.72     0  01:00       0.883        1.03       0.221
  919                  JUNCTION     17.90    22.10     0  01:00       0.883        1.52       0.032
  920                  JUNCTION     10.33    13.68     0  01:30       0.543        1.21      -0.006
  921                  JUNCTION     10.33    13.58     0  01:30       0.543        1.03       0.040
  922                  JUNCTION     10.33    12.63     0  01:30       0.543        1.04       0.070
  923                  JUNCTION     10.33    12.66     0  01:30       0.543        1.12       0.065
  924                  JUNCTION     10.33    12.55     0  01:30       0.543        1.18       0.028
  925                  JUNCTION     10.33    11.33     0  01:30       0.543       0.782       0.042
  926                  JUNCTION     10.33    11.52     0  01:30       0.543       0.713      -0.012
  927                  JUNCTION     10.33    10.33     0  01:30       0.543       0.543       0.032
  934                  JUNCTION     10.48    17.69     0  01:30       0.601        1.43       0.004
  JC48                 JUNCTION     17.65    17.65     0  01:00       0.785        1.29      -0.717
  OUTLET94             OUTFALL      17.90    20.96     0  01:00       0.883        1.76       0.000
  WW48                 STORAGE       0.00     5.09     0  13:26           0       0.499      -0.731
  
  
  **********************
  Node Surcharge Summary
  **********************
  
  Surcharging occurs when water rises above the top of the highest conduit.
  ---------------------------------------------------------------------
                                               Max. Height   Min. Depth
                                   Hours       Above Crown    Below Rim
  Node                 Type      Surcharged           Feet         Feet
  ---------------------------------------------------------------------
  44                   JUNCTION        2.61          1.000        0.000
  52                   JUNCTION        2.72        176.947        0.000
  54                   JUNCTION        5.00          0.900        0.000
  901                  JUNCTION        2.87          0.000        0.000
  903                  JUNCTION        2.67          0.000        0.000
  917                  JUNCTION        2.65          0.133        0.000
  918                  JUNCTION        2.65          0.200        0.000
  919                  JUNCTION        2.74          0.000        0.000
  920                  JUNCTION        3.76          0.000        0.000
  921                  JUNCTION        2.86          0.000        0.000
  922                  JUNCTION        4.49          0.800        0.000
  923                  JUNCTION        4.81          1.000        0.000
  924                  JUNCTION        4.88          1.000        0.000
  925                  JUNCTION        2.55          0.000        0.000
  926                  JUNCTION        2.92          0.000        0.000
  927                  JUNCTION        2.67          0.133        0.000
  934                  JUNCTION       22.99          4.500        0.000
  JC48                 JUNCTION       22.99       1006.500        0.000
  
  
  *********************
  Node Flooding Summary
  *********************
  
  Flooding refers to all water that overflows a node, whether it ponds or not.
  --------------------------------------------------------------------------
                                                             Total   Maximum
                                 Maximum   Time of Max       Flood    Ponded
                        Hours       Rate    Occurrence      Volume     Depth
  Node                 Flooded       CFS   days hr:min    10^6 gal      Feet
  --------------------------------------------------------------------------
  44                      2.53     14.94      0  01:01       0.588     0.000
  54                      4.14     41.31      0  01:01       1.928     0.000
  901                     2.86     18.71      0  01:01       0.855     0.000
  903                     2.67      0.67      0  00:13       0.048     0.000
  917                     2.65     16.40      0  01:01       0.690     0.000
  918                     2.64     16.66      0  01:01       0.708     0.000
  919                     2.74     18.75      0  01:01       0.856     0.000
  920                     3.75     13.68      0  01:29       0.716     0.000
  921                     2.86     11.28      0  01:30       0.526     0.000
  922                     3.77     10.30      0  01:30       0.463     0.000
  923                     3.81     10.44      0  01:30       0.482     0.000
  924                     2.73      9.58      0  01:30       0.404     0.000
  925                     2.55      8.09      0  01:30       0.298     0.000
  926                     2.92     10.52      0  01:30       0.473     0.000
  927                     2.66      9.15      0  01:30       0.372     0.000
  934                    22.99     17.69      0  01:30       1.432     0.000
  JC48                    0.97      4.58      0  01:00       0.106  1000.000
  
  
  **********************
  Storage Volume Summary
  **********************
  
  --------------------------------------------------------------------------------------------------
                         Average     Avg  Evap Exfil       Maximum     Max    Time of Max    Maximum
                          Volume    Pcnt  Pcnt  Pcnt        Volume    Pcnt     Occurrence    Outflow
  Storage Unit          1000 ft3    Full  Loss  Loss      1000 ft3    Full    days hr:min        CFS
  --------------------------------------------------------------------------------------------------
  WW48                     0.151       7     0     0         0.915      45       0  00:33       2.00
  
  
  ***********************
  Outfall Loading Summary
  ***********************
  
  -----------------------------------------------------------
                         Flow       Avg       Max       Total
                         Freq      Flow      Flow      Volume
  Outfall Node           Pcnt       CFS       CFS    10^6 gal
  -----------------------------------------------------------
  OUTLET94             100.00      2.43     20.96       1.758
  -----------------------------------------------------------
  System               100.00      2.43     20.96       1.758
  
  
  ********************
  Link Flow Summary
  ********************
  
  -----------------------------------------------------------------------------
                                 Maximum  Time of Max   Maximum    Max/    Max/
                                  |Flow|   Occurrence   |Veloc|    Full    Full
  Link                 Type          CFS  days hr:min    ft/sec    Flow   Depth
  -----------------------------------------------------------------------------
  53                   CONDUIT     23.50     0  01:01     29.92   12.14    1.00
  911                  CONDUIT      3.06     0  00:12      4.20    1.40    0.87
  913                  CONDUIT      2.05     0  00:07      2.75    1.20    1.00
  917                  CONDUIT      1.03     0  00:05      3.06    1.19    1.00
  929                  CONDUIT      1.59     0  00:05      4.75    1.05    1.00
  930                  CONDUIT      2.32     0  00:06      3.02    1.17    1.00
  934                  CONDUIT      3.11     0  00:03      4.51    0.97    1.00
  935                  CONDUIT      2.88     0  00:03      3.82    1.23    1.00
  936                  CONDUIT      3.33     0  00:04      4.28    1.59    1.00
  937                  CONDUIT      4.06     0  00:04      5.25    1.50    1.00
  938                  CONDUIT      4.20     0  00:14      5.35    1.32    1.00
  939                  CONDUIT      3.47     0  00:04      4.67    1.05    1.00
  940                  CONDUIT      5.09     0  13:26     26.75    0.72    1.00
  941                  CONDUIT      1.22     0  00:04      3.55    1.04    1.00
  942                  CONDUIT      1.14     0  00:06      3.38    1.14    1.00
  943                  CONDUIT      3.40     0  00:07      4.52    0.99    1.00
  947                  CONDUIT      7.21     0  01:01     36.72    3.24    1.00
  FM51                 CONDUIT     13.61     0  00:41    >50.00    8.26    1.00
  P51                  PUMP         2.00     0  00:00              1.00
  
  
  ***************************
  Flow Classification Summary
  ***************************
  
  -------------------------------------------------------------------------------------
                      Adjusted    ---------- Fraction of Time in Flow Class ---------- 
                       /Actual         Up    Down  Sub   Sup   Up    Down  Norm  Inlet 
  Conduit               Length    Dry  Dry   Dry   Crit  Crit  Crit  Crit  Ltd   Ctrl  
  -------------------------------------------------------------------------------------
  53                      1.00   0.11  0.46  0.00  0.39  0.00  0.01  0.03  0.76  0.00
  911                     1.00   0.00  0.00  0.00  0.93  0.07  0.00  0.00  0.00  0.00
  913                     1.00   0.00  0.00  0.00  0.07  0.00  0.00  0.93  0.00  0.00
  917                     1.00   0.00  0.00  0.00  0.08  0.00  0.00  0.92  0.00  0.00
  929                     1.00   0.00  0.00  0.00  0.07  0.00  0.00  0.93  0.00  0.00
  930                     1.00   0.00  0.00  0.00  0.42  0.00  0.00  0.58  0.12  0.00
  934                     1.00   0.00  0.00  0.00  0.20  0.00  0.00  0.79  0.04  0.00
  935                     1.00   0.00  0.00  0.00  0.39  0.00  0.00  0.61  0.01  0.00
  936                     1.00   0.00  0.00  0.00  0.23  0.00  0.00  0.77  0.00  0.00
  937                     1.00   0.00  0.00  0.00  0.24  0.00  0.00  0.76  0.01  0.00
  938                     1.00   0.00  0.00  0.00  0.08  0.00  0.00  0.92  0.01  0.00
  939                     1.00   0.00  0.00  0.00  0.15  0.00  0.00  0.84  0.05  0.00
  940                     1.00   0.00  0.00  0.00  0.24  0.76  0.00  0.00  0.08  0.00
  941                     1.00   0.00  0.00  0.00  0.15  0.00  0.00  0.85  0.06  0.00
  942                     1.00   0.00  0.00  0.00  0.06  0.00  0.00  0.94  0.00  0.00
  943                     1.00   0.00  0.00  0.00  0.14  0.00  0.00  0.85  0.05  0.00
  947                     1.00   0.00  0.00  0.00  0.36  0.64  0.00  0.00  0.62  0.00
  FM51                    1.00   0.00  0.00  0.00  0.37  0.63  0.00  0.00  0.00  0.00
  
  
  *************************
  Conduit Surcharge Summary
  *************************
  
  ----------------------------------------------------------------------------
                                                           Hours        Hours 
                         --------- Hours Full --------   Above Full   Capacity
  Conduit                Both Ends  Upstream  Dnstream   Normal Flow   Limited
  ----------------------------------------------------------------------------
  53                          2.72      2.72      4.99      2.65         2.64
  911                         0.01      5.44      0.01      5.50         0.01
  913                         2.61      2.95      2.61      0.35         0.01
  917                         2.68      2.74      2.68      0.11         0.04
  929                         2.65      2.65      2.67      0.01         2.65
  930                         2.65      2.65      2.86      2.68         2.64
  934                         2.94      2.94      4.48      0.01         0.01
  935                         4.60      4.60      4.81      0.04         0.02
  936                         4.84      4.97      4.87      4.87         4.77
  937                         4.91      4.97      4.99      3.84         4.43
  938                         2.64      2.64      2.74      2.64         2.64
  939                         2.85      2.85      3.75      2.77         2.85
  940                         3.44      3.89      5.44      0.01         0.01
  941                         2.66      2.66      2.92      2.67         2.66
  942                         2.57      2.97      2.57      0.43         2.57
  943                         2.55      2.55      2.86      0.01         0.01
  947                         5.75      5.75     22.99      2.55         2.62
  FM51                        5.75      5.75     22.99      5.96         0.01
  
  
  ***************
  Pumping Summary
  ***************
  
  ---------------------------------------------------------------------------------------------------------
                                                  Min       Avg       Max     Total     Power    % Time Off
                        Percent   Number of      Flow      Flow      Flow    Volume     Usage    Pump Curve
  Pump                 Utilized   Start-Ups       CFS       CFS       CFS  10^6 gal     Kw-hr    Low   High
  ---------------------------------------------------------------------------------------------------------
  P51                     91.43           2      0.00      1.06      2.00     0.503     81.95    0.0   81.2
  

  Analysis begun on:  Wed Jan 02 04:54:02 2019
  Analysis ended on:  Wed Jan 02 04:54:02 2019
  Total elapsed time: < 1 sec