
  EPA STORM WATER MANAGEMENT MODEL - VERSION 5.1 (Build 5.1.012)
  --------------------------------------------------------------

  WARNING 04: minimum elevation drop used for Conduit 5A_FORCEMAIN_D
  WARNING 04: minimum elevation drop used for Conduit INTERCONNECT
  WARNING 02: maximum depth increased for Node 5A_DUMMY
  WARNING 02: maximum depth increased for Node DUMMY_FOR_GRAVITY
  WARNING 02: maximum depth increased for Node FM_SPLIT
  
  **********************           Volume        Volume
  Rainfall Dependent I/I        acre-feet      10^6 gal
  **********************        ---------     ---------
  Sewershed Rainfall ......       333.634       108.720
  RDII Produced ...........        20.681         6.739
  RDII Ratio ..............         0.062
  
  
  *********************************************************
  NOTE: The summary statistics displayed in this report are
  based on results found at every computational time step,  
  not just on results from each reporting time step.
  *********************************************************
  
  ****************
  Analysis Options
  ****************
  Flow Units ............... MGD
  Process Models:
    Rainfall/Runoff ........ YES
    RDII ................... YES
    Snowmelt ............... NO
    Groundwater ............ NO
    Flow Routing ........... YES
    Ponding Allowed ........ NO
    Water Quality .......... NO
  Flow Routing Method ...... DYNWAVE
  Starting Date ............ 12/09/2012 00:00:00
  Ending Date .............. 12/30/2012 00:00:00
  Antecedent Dry Days ...... 5.0
  Report Time Step ......... 00:15:00
  Routing Time Step ........ 1.00 sec
  Variable Time Step ....... YES
  Maximum Trials ........... 8
  Number of Threads ........ 1
  Head Tolerance ........... 0.001000 ft
  
  
  **************************        Volume        Volume
  Flow Routing Continuity        acre-feet      10^6 gal
  **************************     ---------     ---------
  Dry Weather Inflow .......         0.000         0.000
  Wet Weather Inflow .......         0.000         0.000
  Groundwater Inflow .......         0.000         0.000
  RDII Inflow ..............        20.679         6.739
  External Inflow ..........         0.000         0.000
  External Outflow .........        22.707         7.399
  Flooding Loss ............         5.355         1.745
  Evaporation Loss .........         0.000         0.000
  Exfiltration Loss ........         0.000         0.000
  Initial Stored Volume ....         0.000         0.000
  Final Stored Volume ......         0.241         0.079
  Continuity Error (%) .....       -36.869
  
  
  *************************
  Highest Continuity Errors
  *************************
  Node 5A_DUMMY (-39.52%)
  
  
  ***************************
  Time-Step Critical Elements
  ***************************
  None
  
  
  ********************************
  Highest Flow Instability Indexes
  ********************************
  Link 5A_FORCEMAIN_D (3)
  Link INTERCONNECT (3)
  Link 5A_PUMP_1 (2)
  Link 5A_FORCEMAIN_A (1)
  
  
  *************************
  Routing Time Step Summary
  *************************
  Minimum Time Step           :     0.04 sec
  Average Time Step           :     1.00 sec
  Maximum Time Step           :     1.00 sec
  Percent in Steady State     :    -0.00
  Average Iterations per Step :     4.05
  Percent Not Converging      :    30.04
  
  
  ******************
  Node Depth Summary
  ******************
  
  ---------------------------------------------------------------------------------
                                 Average  Maximum  Maximum  Time of Max    Reported
                                   Depth    Depth      HGL   Occurrence   Max Depth
  Node                 Type         Feet     Feet     Feet  days hr:min        Feet
  ---------------------------------------------------------------------------------
  5A_DUMMY             JUNCTION     6.93   101.33   817.05     0  18:33      101.33
  DUMMY_FOR_GRAVITY    JUNCTION     0.11     0.68   735.68     8  23:31        0.64
  FM_SPLIT             JUNCTION     7.80    38.95   752.95     9  06:05       26.72
  FORCEMAIN_RECONNECT  JUNCTION     9.79    18.20   729.91     8  23:30       18.16
  INTERCONNECT1        JUNCTION     8.71    30.56   743.56     9  00:36       30.14
  INTERCONNECT2        JUNCTION     8.71    30.33   743.33     9  00:36       29.92
  K-1A                 JUNCTION     0.26     1.45   846.07     8  23:10        1.42
  K-25.1               JUNCTION     2.10     3.34   843.34     0  17:08        3.13
  K-25.2               JUNCTION     0.09     0.37   844.15     8  23:16        0.37
  MC-1                 JUNCTION     0.26     1.50   706.10     8  21:53        1.48
  MC-2                 JUNCTION     0.04     0.26   711.01     8  22:55        0.26
  MC-3                 JUNCTION     0.04     0.31   711.11     8  22:50        0.31
  MC-4                 JUNCTION     0.03     0.19   711.42     8  22:51        0.19
  N-1                  JUNCTION     0.13     0.73   710.76     8  23:21        0.73
  N-10                 JUNCTION     0.12     0.57   746.57     8  23:17        0.57
  N-11                 JUNCTION     0.11     0.49   763.49     8  23:17        0.49
  N-12                 JUNCTION     0.11     0.49   776.49     8  23:16        0.49
  N-13                 JUNCTION     0.14     0.65   782.65     8  23:15        0.65
  N-13.1               JUNCTION     0.01     0.09   784.09     8  18:42        0.09
  N-13.2               JUNCTION     0.01     0.10   786.10     8  18:41        0.10
  N-14                 JUNCTION     0.12     0.56   786.56     8  23:15        0.56
  N-15                 JUNCTION     0.11     0.49   791.99     8  23:15        0.49
  N-16                 JUNCTION     0.17     0.87   793.37     8  23:14        0.87
  N-17                 JUNCTION     0.10     0.47   804.77     8  23:14        0.47
  N-18                 JUNCTION     0.18     0.90   806.40     8  23:14        0.90
  N-19                 JUNCTION     0.13     0.58   811.58     8  23:13        0.58
  N-2                  JUNCTION     0.21     0.98   711.48     8  23:20        0.98
  N-20                 JUNCTION     0.11     0.50   818.93     8  23:13        0.49
  N-21                 JUNCTION     0.11     0.55   823.05     8  23:12        0.54
  N-22                 JUNCTION     0.19     1.01   824.51     8  23:12        1.01
  N-23                 JUNCTION     0.13     0.63   829.63     8  23:12        0.62
  N-24                 JUNCTION     0.12     0.55   839.55     8  23:11        0.55
  N-25                 JUNCTION     0.13     0.62   842.62     8  23:11        0.62
  N-26                 JUNCTION     0.04     0.34   860.34    19  09:05        0.28
  N-27                 JUNCTION     0.04     0.35   875.35    19  09:04        0.29
  N-28                 JUNCTION     0.06     1.96   877.96    19  09:00        0.57
  N-29                 JUNCTION     0.04     0.32   883.32    19  09:05        0.26
  N-3                  JUNCTION     0.20     0.99   712.09     8  23:20        0.99
  N-30                 JUNCTION     0.05     0.53   886.53    19  09:05        0.40
  N-31                 JUNCTION     0.05     0.43   897.43    19  09:05        0.34
  N-4                  JUNCTION     0.19     0.97   712.77     8  23:19        0.97
  N-5                  JUNCTION     0.09     0.41   726.41     8  23:18        0.41
  N-6                  JUNCTION     0.10     0.47   733.47     8  23:18        0.47
  N-7                  JUNCTION     0.14     0.70   735.70     8  23:18        0.70
  N-8                  JUNCTION     0.12     0.55   739.05     8  23:18        0.55
  N-9                  JUNCTION     0.12     0.55   743.55     8  23:17        0.55
  RBW_DUMMY            JUNCTION     7.76    73.15   773.15     8  23:29       62.22
  RBW_FM_CONNECT       JUNCTION     8.71    30.75   743.75     8  23:29       30.36
  S-1                  JUNCTION     0.00     0.08   792.98    19  09:10        0.07
  S-2                  JUNCTION     0.01     0.14   797.50    19  09:07        0.14
  S-3                  JUNCTION     0.00     0.00   812.10     0  00:00        0.00
  5A_OUTFALL           OUTFALL      0.00     0.00   710.37     0  00:00        0.00
  WWTP                 OUTFALL      0.10     0.60   722.10     8  23:30        0.57
  5A_WETWELL           STORAGE      3.55     4.27   705.60     8  23:10        4.22
  RBW_WETWELL          STORAGE      5.08     8.01   706.09     8  22:43        8.00
  
  
  *******************
  Node Inflow Summary
  *******************
  
  -------------------------------------------------------------------------------------------------
                                  Maximum  Maximum                  Lateral       Total        Flow
                                  Lateral    Total  Time of Max      Inflow      Inflow     Balance
                                   Inflow   Inflow   Occurrence      Volume      Volume       Error
  Node                 Type           MGD      MGD  days hr:min    10^6 gal    10^6 gal     Percent
  -------------------------------------------------------------------------------------------------
  5A_DUMMY             JUNCTION     0.000    4.752     0  17:40           0        6.28     -28.326
  DUMMY_FOR_GRAVITY    JUNCTION     0.000    4.946    19  09:29           0        7.07       0.023
  FM_SPLIT             JUNCTION     0.000    3.700     8  23:31           0        7.07       0.221
  FORCEMAIN_RECONNECT  JUNCTION     0.000    4.996     8  23:30           0        7.42       0.259
  INTERCONNECT1        JUNCTION     0.000    3.035     8  23:30           0        2.68       0.372
  INTERCONNECT2        JUNCTION     0.000    3.158     8  23:30           0        5.11       0.322
  K-1A                 JUNCTION     2.148    2.148     8  23:15        5.07        5.07       0.006
  K-25.1               JUNCTION     0.000    2.148     8  23:16           0        5.07       0.015
  K-25.2               JUNCTION     0.000    2.149     8  23:15           0        5.07       0.003
  MC-1                 JUNCTION     0.000    0.283     8  22:55           0       0.394      -0.450
  MC-2                 JUNCTION     0.000    0.283     8  22:50           0       0.392       0.007
  MC-3                 JUNCTION     0.000    0.283     8  22:51           0       0.392       0.002
  MC-4                 JUNCTION     0.283    0.283     8  22:50       0.392       0.392       0.001
  N-1                  JUNCTION     0.000    2.920     8  23:20           0        6.29       0.001
  N-10                 JUNCTION     0.000    2.922     8  23:17           0        6.29       0.004
  N-11                 JUNCTION     0.000    2.923     8  23:16           0        6.29       0.003
  N-12                 JUNCTION     0.000    2.923     8  23:16           0        6.29       0.003
  N-13                 JUNCTION     0.000    2.924     8  23:15           0        6.29       0.003
  N-13.1               JUNCTION     0.000    0.054     8  18:41           0      0.0393      -0.009
  N-13.2               JUNCTION     0.054    0.054     8  18:40      0.0393      0.0393      -0.001
  N-14                 JUNCTION     0.000    2.905     8  23:15           0        6.25       0.002
  N-15                 JUNCTION     0.000    2.905     8  23:15           0        6.25       0.001
  N-16                 JUNCTION     0.000    2.907     8  23:14           0        6.25       0.004
  N-17                 JUNCTION     0.000    2.907     8  23:14           0        6.25       0.002
  N-18                 JUNCTION     0.000    2.909     8  23:13           0        6.25       0.005
  N-19                 JUNCTION     0.000    2.911     8  23:13           0        6.25       0.002
  N-2                  JUNCTION     0.000    2.921     8  23:20           0        6.29       0.005
  N-20                 JUNCTION     0.000    2.911     8  23:12           0        6.25       0.001
  N-21                 JUNCTION     0.000    2.911     8  23:12           0        6.25       0.001
  N-22                 JUNCTION     0.000    2.916     8  23:12           0        6.25       0.004
  N-23                 JUNCTION     0.000    2.921     8  23:11           0        6.25       0.003
  N-24                 JUNCTION     0.000    2.925     8  23:11           0        6.25       0.002
  N-25                 JUNCTION     0.000    2.927     8  23:11           0        6.25       0.003
  N-26                 JUNCTION     0.000    1.226    19  09:05           0        1.18      -0.002
  N-27                 JUNCTION     0.000    1.226    19  09:04           0        1.18       0.000
  N-28                 JUNCTION     0.000    1.226    19  09:05           0        1.18       0.002
  N-29                 JUNCTION     0.000    1.226    19  09:05           0        1.18       0.001
  N-3                  JUNCTION     0.000    2.921     8  23:19           0        6.29       0.004
  N-30                 JUNCTION     0.000    1.226    19  09:05           0        1.18       0.006
  N-31                 JUNCTION     1.226    1.226    19  09:00        1.18        1.18      -0.002
  N-4                  JUNCTION     0.000    2.922     8  23:18           0        6.29       0.003
  N-5                  JUNCTION     0.000    2.922     8  23:18           0        6.29       0.001
  N-6                  JUNCTION     0.000    2.922     8  23:18           0        6.29       0.001
  N-7                  JUNCTION     0.000    2.922     8  23:18           0        6.29       0.002
  N-8                  JUNCTION     0.000    2.922     8  23:17           0        6.29       0.002
  N-9                  JUNCTION     0.000    2.922     8  23:17           0        6.29       0.002
  RBW_DUMMY            JUNCTION     0.000    2.304     0  19:28           0       0.391      -0.679
  RBW_FM_CONNECT       JUNCTION     0.000    3.134     8  23:30           0        2.64       0.191
  S-1                  JUNCTION     0.000    0.120    19  09:08           0      0.0525      -0.203
  S-2                  JUNCTION     0.120    0.120    19  09:05      0.0525      0.0525      -0.012
  S-3                  JUNCTION     0.000    0.000     0  00:00           0           0       0.000 gal
  5A_OUTFALL           OUTFALL      0.000    0.000     0  00:00           0           0       0.000 gal
  WWTP                 OUTFALL      0.000    4.987     8  23:30           0         7.4       0.000
  5A_WETWELL           STORAGE      0.000    2.920     8  23:21           0        6.29       0.068
  RBW_WETWELL          STORAGE      0.000    1.101     8  22:54           0       0.395       0.257
  
  
  **********************
  Node Surcharge Summary
  **********************
  
  Surcharging occurs when water rises above the top of the highest conduit.
  ---------------------------------------------------------------------
                                               Max. Height   Min. Depth
                                   Hours       Above Crown    Below Rim
  Node                 Type      Surcharged           Feet         Feet
  ---------------------------------------------------------------------
  5A_DUMMY             JUNCTION       85.85        100.000        0.000
  FM_SPLIT             JUNCTION      480.40         37.617        0.000
  FORCEMAIN_RECONNECT  JUNCTION      483.55         16.866        0.000
  INTERCONNECT1        JUNCTION      482.28         29.558        0.000
  INTERCONNECT2        JUNCTION      481.95         28.998        0.000
  K-1A                 JUNCTION        0.34          0.112       14.765
  K-25.1               JUNCTION      486.86          2.092        4.658
  N-28                 JUNCTION        0.17          1.291       12.712
  RBW_DUMMY            JUNCTION      467.30         72.486        0.000
  RBW_FM_CONNECT       JUNCTION      482.27         29.751        0.000
  
  
  *********************
  Node Flooding Summary
  *********************
  
  Flooding refers to all water that overflows a node, whether it ponds or not.
  --------------------------------------------------------------------------
                                                             Total   Maximum
                                 Maximum   Time of Max       Flood    Ponded
                        Hours       Rate    Occurrence      Volume     Depth
  Node                 Flooded       MGD   days hr:min    10^6 gal      Feet
  --------------------------------------------------------------------------
  5A_DUMMY               20.42     4.723     11  23:44       1.745   100.000
  
  
  **********************
  Storage Volume Summary
  **********************
  
  --------------------------------------------------------------------------------------------------
                         Average     Avg  Evap Exfil       Maximum     Max    Time of Max    Maximum
                          Volume    Pcnt  Pcnt  Pcnt        Volume    Pcnt     Occurrence    Outflow
  Storage Unit          1000 ft3    Full  Loss  Loss      1000 ft3    Full    days hr:min        MGD
  --------------------------------------------------------------------------------------------------
  5A_WETWELL               0.199      17     0     0         0.247      21       8  23:10      4.752
  RBW_WETWELL              0.178      28     0     0         0.290      46       8  22:43      2.304
  
  
  ***********************
  Outfall Loading Summary
  ***********************
  
  -----------------------------------------------------------
                         Flow       Avg       Max       Total
                         Freq      Flow      Flow      Volume
  Outfall Node           Pcnt       MGD       MGD    10^6 gal
  -----------------------------------------------------------
  5A_OUTFALL             0.00     0.000     0.000       0.000
  WWTP                  81.70     0.433     4.987       7.399
  -----------------------------------------------------------
  System                40.85     0.433     4.987       7.399
  
  
  ********************
  Link Flow Summary
  ********************
  
  -----------------------------------------------------------------------------
                                 Maximum  Time of Max   Maximum    Max/    Max/
                                  |Flow|   Occurrence   |Veloc|    Full    Full
  Link                 Type          MGD  days hr:min    ft/sec    Flow   Depth
  -----------------------------------------------------------------------------
  5A_FORCEMAIN_A       CONDUIT     4.865     8  23:30      8.08    1.09    0.75
  5A_FORCEMAIN_B       CONDUIT     3.700     8  23:31      5.10    0.37    0.75
  5A_FORCEMAIN_C       CONDUIT     1.200     8  23:31      2.36    1.31    1.00
  5A_FORCEMAIN_D       CONDUIT     3.035     8  23:30      5.98   15.52    1.00
  5A_FORCEMAIN_E       CONDUIT     1.655     8  23:30      3.26    2.37    1.00
  5A_FORCEMAIN_PARALLEL_A CONDUIT     2.489     8  23:31      2.76    1.30    1.00
  5A_FORCEMAIN_PARALLEL_B CONDUIT     3.341     8  23:30      3.70    2.27    1.00
  FM_TO_RIVERVIEW      CONDUIT     4.987     8  23:30     11.42    0.68    0.80
  INTERCONNECT         CONDUIT     1.953     0  22:21      3.85   10.82    1.00
  K-1A_K-25.2          CONDUIT     2.149     8  23:15      3.58    1.06    0.64
  K-25.1-N-25          CONDUIT     2.148     8  23:16      3.39    0.34    0.75
  K-25.2-K-25.1        CONDUIT     2.148     8  23:16      3.95    0.19    0.65
  MC-1-RBW_WETWELL     CONDUIT     1.101     8  22:54      3.12    1.02    1.00
  MC-2-MC-1            CONDUIT     0.283     8  22:55      2.98    0.21    0.31
  MC-3-MC-2            CONDUIT     0.283     8  22:50      2.64    0.28    0.34
  MC-4-MC-3            CONDUIT     0.283     8  22:51      3.17    0.12    0.30
  N-10-N-9             CONDUIT     2.922     8  23:17      7.48    0.30    0.37
  N-11-N-10            CONDUIT     2.922     8  23:17      8.11    0.23    0.35
  N-12-N-11            CONDUIT     2.923     8  23:16      9.03    0.23    0.33
  N-13-N-12            CONDUIT     2.923     8  23:16      7.30    0.35    0.38
  N-13.1-N-13          CONDUIT     0.054     8  18:42      1.53    0.04    0.53
  N-13.2-N-13.1        CONDUIT     0.054     8  18:41      2.81    0.05    0.14
  N-14-N-13            CONDUIT     2.905     8  23:15      6.75    0.29    0.40
  N-15-N-14            CONDUIT     2.905     8  23:15      8.21    0.23    0.35
  N-16-N-15            CONDUIT     2.905     8  23:15      5.76    0.50    0.45
  N-17-N-16            CONDUIT     2.907     8  23:14      5.86    0.21    0.45
  N-18-N-17            CONDUIT     2.907     8  23:14      5.73    0.52    0.46
  N-19-N-18            CONDUIT     2.909     8  23:13      5.18    0.32    0.49
  N-2-N-1              CONDUIT     2.920     8  23:20      4.33    0.73    0.57
  N-20-N-19            CONDUIT     2.911     8  23:13      7.85    0.24    0.36
  N-21-N-20            CONDUIT     2.911     8  23:12      8.90    0.33    0.39
  N-22-N-21            CONDUIT     2.911     8  23:12      5.59    0.84    0.62
  N-23-N-22            CONDUIT     2.916     8  23:12      5.29    0.50    0.66
  N-24-N-23            CONDUIT     2.921     8  23:11      7.95    0.40    0.47
  N-25-N-24            CONDUIT     2.925     8  23:11      7.97    0.46    0.47
  N-26-N-25            CONDUIT     1.226    19  09:05      8.79    0.51    0.67
  N-27-N-26            CONDUIT     1.226    19  09:05     10.50    0.53    0.52
  N-28-N-27            CONDUIT     1.226    19  09:04      6.64    1.05    0.76
  N-29-N-28            CONDUIT     1.226    19  09:05      6.88    0.45    0.74
  N-3-N-2              CONDUIT     2.921     8  23:20      3.66    0.77    0.66
  N-30-N-29            CONDUIT     1.226    19  09:05      8.13    0.74    0.63
  N-31-N-30            CONDUIT     1.226    19  09:05      7.63    0.74    0.72
  N-4-N-3              CONDUIT     2.921     8  23:19      3.69    0.75    0.65
  N-5-N-4              CONDUIT     2.922     8  23:18      6.62    0.16    0.46
  N-6-N-5              CONDUIT     2.922     8  23:18     10.53    0.19    0.29
  N-7-N-6              CONDUIT     2.922     8  23:18      7.08    0.35    0.39
  N-8-N-7              CONDUIT     2.922     8  23:18      6.50    0.28    0.42
  N-9-N-8              CONDUIT     2.922     8  23:17      7.71    0.29    0.37
  N1-PS                CONDUIT     2.920     8  23:21      6.84    0.35    0.48
  RBW_FORCEMAIN        CONDUIT     2.320     8  21:29     12.39    0.91    1.00
  S-1-JCT-FM2          CONDUIT     0.120    19  09:10      5.78    0.01    0.27
  S-2-S-1              CONDUIT     0.120    19  09:08      4.99    0.08    0.16
  S-3-S-2              CONDUIT     0.000     0  00:00      0.00    0.00    0.11
  5A_PUMP_1            PUMP        4.752     0  17:40              1.00
  RBW_PUMP1            PUMP        2.304     0  19:28              1.00
  5A_OUTFALL           ORIFICE     0.000     0  00:00                      0.00
  
  
  ***************************
  Flow Classification Summary
  ***************************
  
  -------------------------------------------------------------------------------------
                      Adjusted    ---------- Fraction of Time in Flow Class ---------- 
                       /Actual         Up    Down  Sub   Sup   Up    Down  Norm  Inlet 
  Conduit               Length    Dry  Dry   Dry   Crit  Crit  Crit  Crit  Ltd   Ctrl  
  -------------------------------------------------------------------------------------
  5A_FORCEMAIN_A          1.00   0.03  0.02  0.00  0.90  0.05  0.00  0.00  0.63  0.00
  5A_FORCEMAIN_B          1.00   0.03  0.02  0.00  0.94  0.01  0.00  0.00  0.96  0.00
  5A_FORCEMAIN_C          1.00   0.03  0.00  0.00  0.97  0.00  0.00  0.00  0.01  0.00
  5A_FORCEMAIN_D          1.00   0.03  0.00  0.00  0.97  0.00  0.00  0.00  0.00  0.00
  5A_FORCEMAIN_E          1.00   0.03  0.00  0.00  0.97  0.00  0.00  0.00  0.00  0.00
  5A_FORCEMAIN_PARALLEL_A    1.00   0.03  0.00  0.00  0.97  0.00  0.00  0.00  0.01  0.00
  5A_FORCEMAIN_PARALLEL_B    1.00   0.03  0.00  0.00  0.97  0.00  0.00  0.00  0.00  0.00
  FM_TO_RIVERVIEW         1.00   0.03  0.03  0.00  0.86  0.08  0.00  0.00  0.01  0.00
  INTERCONNECT            1.00   0.03  0.00  0.00  0.97  0.00  0.00  0.00  0.00  0.00
  K-1A_K-25.2             1.00   0.03  0.00  0.00  0.97  0.00  0.00  0.00  0.00  0.00
  K-25.1-N-25             1.00   0.03  0.00  0.00  0.97  0.00  0.00  0.00  0.00  0.00
  K-25.2-K-25.1           1.00   0.03  0.12  0.00  0.85  0.00  0.00  0.00  0.97  0.00
  MC-1-RBW_WETWELL        1.20   0.03  0.00  0.00  0.37  0.00  0.00  0.59  0.00  0.00
  MC-2-MC-1               1.00   0.03  0.00  0.00  0.00  0.00  0.00  0.97  0.00  0.00
  MC-3-MC-2               1.00   0.03  0.00  0.00  0.87  0.10  0.00  0.00  0.47  0.00
  MC-4-MC-3               1.00   0.03  0.00  0.00  0.45  0.51  0.00  0.00  0.97  0.00
  N-10-N-9                1.00   0.03  0.00  0.00  0.13  0.84  0.00  0.00  0.13  0.00
  N-11-N-10               1.00   0.03  0.00  0.00  0.12  0.84  0.00  0.00  0.96  0.00
  N-12-N-11               1.00   0.03  0.00  0.00  0.12  0.85  0.00  0.00  0.18  0.00
  N-13-N-12               1.00   0.03  0.00  0.00  0.13  0.84  0.00  0.00  0.00  0.00
  N-13.1-N-13             1.00   0.03  0.60  0.00  0.36  0.00  0.00  0.00  0.96  0.00
  N-13.2-N-13.1           1.00   0.03  0.00  0.00  0.62  0.34  0.00  0.00  0.62  0.00
  N-14-N-13               1.00   0.03  0.00  0.00  0.14  0.83  0.00  0.00  0.96  0.00
  N-15-N-14               1.00   0.03  0.00  0.00  0.13  0.84  0.00  0.00  0.85  0.00
  N-16-N-15               1.00   0.03  0.00  0.00  0.15  0.81  0.00  0.00  0.12  0.00
  N-17-N-16               1.00   0.03  0.12  0.00  0.03  0.82  0.00  0.00  0.96  0.00
  N-18-N-17               1.00   0.03  0.00  0.00  0.15  0.81  0.00  0.00  0.00  0.00
  N-19-N-18               1.00   0.03  0.12  0.00  0.12  0.73  0.00  0.00  0.96  0.00
  N-2-N-1                 1.00   0.03  0.11  0.00  0.42  0.43  0.00  0.00  0.11  0.00
  N-20-N-19               1.00   0.03  0.00  0.00  0.13  0.83  0.00  0.00  0.85  0.00
  N-21-N-20               1.00   0.03  0.00  0.00  0.12  0.85  0.00  0.00  0.12  0.00
  N-22-N-21               1.00   0.03  0.00  0.00  0.15  0.82  0.00  0.00  0.00  0.00
  N-23-N-22               1.00   0.03  0.00  0.00  0.19  0.78  0.00  0.00  0.96  0.00
  N-24-N-23               1.00   0.03  0.00  0.00  0.13  0.83  0.00  0.00  0.96  0.00
  N-25-N-24               1.00   0.03  0.00  0.00  0.13  0.84  0.00  0.00  0.12  0.00
  N-26-N-25               1.00   0.03  0.40  0.00  0.30  0.27  0.00  0.00  0.97  0.00
  N-27-N-26               1.00   0.03  0.00  0.00  0.41  0.55  0.00  0.00  0.45  0.00
  N-28-N-27               1.00   0.03  0.00  0.00  0.41  0.55  0.00  0.00  0.05  0.00
  N-29-N-28               1.00   0.03  0.00  0.00  0.42  0.55  0.00  0.00  0.97  0.00
  N-3-N-2                 1.00   0.03  0.00  0.00  0.96  0.00  0.00  0.00  0.92  0.00
  N-30-N-29               1.00   0.03  0.00  0.00  0.42  0.55  0.00  0.00  0.42  0.00
  N-31-N-30               1.00   0.03  0.00  0.00  0.42  0.55  0.00  0.00  0.96  0.00
  N-4-N-3                 1.00   0.03  0.00  0.00  0.96  0.00  0.00  0.00  0.86  0.00
  N-5-N-4                 1.00   0.03  0.11  0.00  0.04  0.81  0.00  0.00  0.96  0.00
  N-6-N-5                 1.00   0.03  0.00  0.00  0.11  0.85  0.00  0.00  0.00  0.00
  N-7-N-6                 1.00   0.03  0.00  0.00  0.13  0.84  0.00  0.00  0.11  0.00
  N-8-N-7                 1.00   0.03  0.00  0.00  0.14  0.83  0.00  0.00  0.96  0.00
  N-9-N-8                 1.00   0.03  0.00  0.00  0.13  0.84  0.00  0.00  0.20  0.00
  N1-PS                   1.00   0.03  0.00  0.00  0.00  0.00  0.00  0.97  0.00  0.00
  RBW_FORCEMAIN           1.00   0.03  0.00  0.00  0.97  0.00  0.00  0.00  0.00  0.00
  S-1-JCT-FM2             1.00   0.05  0.75  0.00  0.19  0.02  0.00  0.00  0.96  0.00
  S-2-S-1                 1.00   0.03  0.00  0.00  0.78  0.18  0.00  0.00  0.23  0.00
  S-3-S-2                 1.00   0.03  0.97  0.00  0.00  0.00  0.00  0.00  0.00  0.00
  
  
  *************************
  Conduit Surcharge Summary
  *************************
  
  ----------------------------------------------------------------------------
                                                           Hours        Hours 
                         --------- Hours Full --------   Above Full   Capacity
  Conduit                Both Ends  Upstream  Dnstream   Normal Flow   Limited
  ----------------------------------------------------------------------------
  5A_FORCEMAIN_A              0.01      0.01     67.12      3.01         0.01
  5A_FORCEMAIN_B              0.01      0.01    480.39      0.01         0.01
  5A_FORCEMAIN_C            481.43    481.45    482.27      1.53         4.77
  5A_FORCEMAIN_D            482.26    482.26    482.28     95.69       105.99
  5A_FORCEMAIN_E            482.28    482.28    483.91     19.51        22.98
  5A_FORCEMAIN_PARALLEL_A      480.33    480.38    481.95      1.96         5.17
  5A_FORCEMAIN_PARALLEL_B      481.95    481.95    483.55     20.76        22.98
  FM_TO_RIVERVIEW             0.01      0.01    483.53      0.01         0.01
  INTERCONNECT              482.28    482.29    482.28      5.85        59.11
  K-1A_K-25.2                 0.01      0.34      0.01      0.50         0.01
  K-25.1-N-25                 0.01      0.01    486.86      0.01         0.01
  K-25.2-K-25.1               0.01      0.01    486.86      0.01         0.01
  MC-1-RBW_WETWELL           34.11     34.11     36.18      0.01         0.32
  N-28-N-27                   0.01      0.17      0.01      0.08         0.01
  N-29-N-28                   0.01      0.01      0.17      0.01         0.01
  RBW_FORCEMAIN             465.60    482.91    467.23      0.01       292.98
  
  
  ***************
  Pumping Summary
  ***************
  
  ---------------------------------------------------------------------------------------------------------
                                                  Min       Avg       Max     Total     Power    % Time Off
                        Percent   Number of      Flow      Flow      Flow    Volume     Usage    Pump Curve
  Pump                 Utilized   Start-Ups       MGD       MGD       MGD  10^6 gal     Kw-hr    Low   High
  ---------------------------------------------------------------------------------------------------------
  5A_PUMP_1                7.38        7849      0.00      4.05      4.75     6.282   1545.94    0.0   34.8
  RBW_PUMP1                0.83         192      0.00      2.24      2.30     0.391     50.42    0.0   28.3
  

  Analysis begun on:  Wed Jan 02 04:54:46 2019
  Analysis ended on:  Wed Jan 02 04:57:24 2019
  Total elapsed time: 00:02:38