
  EPA STORM WATER MANAGEMENT MODEL - VERSION 5.1 (Build 5.1.012)
  --------------------------------------------------------------

   SW 1 9 8 
  
  WARNING 09: time series interval greater than recording interval for Rain Gage GAGE1
  
  *************
  Element Count
  *************
  Number of rain gages ...... 1
  Number of subcatchments ... 4
  Number of nodes ........... 7
  Number of links ........... 6
  Number of pollutants ...... 0
  Number of land uses ....... 0
  
  
  ****************
  Raingage Summary
  ****************
                                                      Data       Recording
  Name                 Data Source                    Type       Interval 
  ------------------------------------------------------------------------
  GAGE1                RainSeries1                    VOLUME      15 min.
  
  
  ********************
  Subcatchment Summary
  ********************
  Name                       Area     Width   %Imperv    %Slope Rain Gage            Outlet              
  -----------------------------------------------------------------------------------------------------------
  Wat1                     300.00     10.00      1.00    0.1000 GAGE1                Chan1               
  Wat2                     500.00     10.00      1.00    0.1000 GAGE1                Chan2               
  Wat3                     500.00     10.00      1.00    0.1000 GAGE1                Chan6               
  Wat4                     500.00     10.00      1.00    0.1000 GAGE1                Chan5               
  
  
  ************
  Node Summary
  ************
                                           Invert      Max.    Ponded    External
  Name                 Type                 Elev.     Depth      Area    Inflow  
  -------------------------------------------------------------------------------
  Chan1                JUNCTION             40.00     20.00       0.0
  Chan2                JUNCTION             30.00     20.00       0.0
  Chan3                JUNCTION             20.00     20.00       0.0
  Chan4                JUNCTION             10.00     20.00       0.0
  Chan5                JUNCTION             10.00     20.00       0.0
  Chan6                JUNCTION             20.00     20.00       0.0
  Node7                OUTFALL               0.00     10.00       0.0
  
  
  ************
  Link Summary
  ************
  Name             From Node        To Node          Type            Length    %Slope Roughness
  ---------------------------------------------------------------------------------------------
  Chan1            Chan1            Chan2            CONDUIT         2000.0    0.5000    0.0200
  Chan2            Chan2            Chan3            CONDUIT         2000.0    0.5000    0.0200
  Chan3            Chan3            Chan4            CONDUIT         2000.0    0.5000    0.0200
  Chan4            Chan4            Node7            CONDUIT         2000.0    0.5000    0.0200
  Chan5            Chan5            Node7            CONDUIT         2000.0    0.5000    0.0200
  Chan6            Chan6            Chan5            CONDUIT         2000.0    0.5000    0.0200
  
  
  *********************
  Cross Section Summary
  *********************
                                        Full     Full     Hyd.     Max.   No. of     Full
  Conduit          Shape               Depth     Area     Rad.    Width  Barrels     Flow
  ---------------------------------------------------------------------------------------
  Chan1            PARABOLIC           10.00   133.33     4.51    20.00        1  1911.56
  Chan2            PARABOLIC           10.00   133.33     4.51    20.00        1  1911.56
  Chan3            PARABOLIC           10.00   133.33     4.51    20.00        1  1911.56
  Chan4            PARABOLIC           10.00   133.33     4.51    20.00        1  1911.56
  Chan5            PARABOLIC           10.00   133.33     4.51    20.00        1  1911.56
  Chan6            PARABOLIC           10.00   133.33     4.51    20.00        1  1911.56
  
  
  
  *********************************************************
  NOTE: The summary statistics displayed in this report are
  based on results found at every computational time step,  
  not just on results from each reporting time step.
  *********************************************************
  
  ****************
  Analysis Options
  ****************
  Flow Units ............... CFS
  Process Models:
    Rainfall/Runoff ........ YES
    RDII ................... NO
    Snowmelt ............... NO
    Groundwater ............ YES
    Flow Routing ........... YES
    Ponding Allowed ........ NO
    Water Quality .......... NO
  Infiltration Method ...... GREEN_AMPT
  Flow Routing Method ...... KINWAVE
  Starting Date ............ 07/01/1987 00:00:00
  Ending Date .............. 07/02/1987 12:00:00
  Antecedent Dry Days ...... 0.0
  Report Time Step ......... 00:05:00
  Wet Time Step ............ 00:05:00
  Dry Time Step ............ 23:00:00
  Routing Time Step ........ 30.00 sec
  
  
  **************************        Volume         Depth
  Runoff Quantity Continuity     acre-feet        inches
  **************************     ---------       -------
  Total Precipitation ......      1500.000        10.000
  Evaporation Loss .........         1.256         0.008
  Infiltration Loss ........      1484.224         9.895
  Surface Runoff ...........        13.611         0.091
  Final Storage ............         1.170         0.008
  Continuity Error (%) .....        -0.017
  
  
  **************************        Volume         Depth
  Groundwater Continuity         acre-feet        inches
  **************************     ---------       -------
  Initial Storage ..........      5903.560        88.553
  Infiltration .............       659.655         9.895
  Upper Zone ET ............         3.264         0.049
  Lower Zone ET ............         3.288         0.049
  Deep Percolation .........         3.206         0.048
  Groundwater Flow .........         0.000         0.000
  Final Storage ............      6553.461        98.302
  Continuity Error (%) .....        -0.000
  
  
  **************************        Volume        Volume
  Flow Routing Continuity        acre-feet      10^6 gal
  **************************     ---------     ---------
  Dry Weather Inflow .......         0.000         0.000
  Wet Weather Inflow .......        13.609         4.435
  Groundwater Inflow .......         0.000         0.000
  RDII Inflow ..............         0.000         0.000
  External Inflow ..........         0.000         0.000
  External Outflow .........        13.567         4.421
  Flooding Loss ............         0.000         0.000
  Evaporation Loss .........         0.011         0.004
  Exfiltration Loss ........         0.000         0.000
  Initial Stored Volume ....         0.000         0.000
  Final Stored Volume ......         0.049         0.016
  Continuity Error (%) .....        -0.133
  
  
  ********************************
  Highest Flow Instability Indexes
  ********************************
  All links are stable.
  
  
  *************************
  Routing Time Step Summary
  *************************
  Minimum Time Step           :    30.00 sec
  Average Time Step           :    30.00 sec
  Maximum Time Step           :    30.00 sec
  Percent in Steady State     :     0.00
  Average Iterations per Step :     1.00
  Percent Not Converging      :     0.00
  
  
  ***************************
  Subcatchment Runoff Summary
  ***************************
  
  --------------------------------------------------------------------------------------------------------
                            Total      Total      Total      Total      Total       Total     Peak  Runoff
                           Precip      Runon       Evap      Infil     Runoff      Runoff   Runoff   Coeff
  Subcatchment                 in         in         in         in         in    10^6 gal      CFS
  --------------------------------------------------------------------------------------------------------
  Wat1                      10.00       0.00       0.01       9.89       0.09        0.77     6.15   0.009
  Wat2                      10.00       0.00       0.01       9.89       0.09        1.22     6.99   0.009
  Wat3                      10.00       0.00       0.01       9.89       0.09        1.22     6.99   0.009
  Wat4                      10.00       0.00       0.01       9.89       0.09        1.22     7.00   0.009
  
  
  *******************
  Groundwater Summary
  *******************
  
  -----------------------------------------------------------------------------------------------------
                                            Total    Total  Maximum  Average  Average    Final    Final
                          Total    Total    Lower  Lateral  Lateral    Upper    Water    Upper    Water
                          Infil     Evap  Seepage  Outflow  Outflow   Moist.    Table   Moist.    Table
  Subcatchment               in       in       in       in      CFS                ft                ft
  -----------------------------------------------------------------------------------------------------
  Wat1                     9.89     0.10     0.05     0.00     0.00     0.30    13.36     0.30    13.72
  Wat2                     9.89     0.10     0.05     0.00     0.00     0.30    13.36     0.30    13.72
  
  
  ******************
  Node Depth Summary
  ******************
  
  ---------------------------------------------------------------------------------
                                 Average  Maximum  Maximum  Time of Max    Reported
                                   Depth    Depth      HGL   Occurrence   Max Depth
  Node                 Type         Feet     Feet     Feet  days hr:min        Feet
  ---------------------------------------------------------------------------------
  Chan1                JUNCTION     0.19     0.63    40.63     0  02:15        0.63
  Chan2                JUNCTION     0.32     0.89    30.89     0  02:22        0.89
  Chan3                JUNCTION     0.32     0.89    20.89     0  02:29        0.89
  Chan4                JUNCTION     0.32     0.88    10.88     0  02:37        0.88
  Chan5                JUNCTION     0.36     0.92    10.92     0  02:23        0.92
  Chan6                JUNCTION     0.26     0.67    20.67     0  02:15        0.67
  Node7                OUTFALL      0.36     0.91     0.91     0  02:30        0.91
  
  
  *******************
  Node Inflow Summary
  *******************
  
  -------------------------------------------------------------------------------------------------
                                  Maximum  Maximum                  Lateral       Total        Flow
                                  Lateral    Total  Time of Max      Inflow      Inflow     Balance
                                   Inflow   Inflow   Occurrence      Volume      Volume       Error
  Node                 Type           CFS      CFS  days hr:min    10^6 gal    10^6 gal     Percent
  -------------------------------------------------------------------------------------------------
  Chan1                JUNCTION      6.15     6.15     0  02:15       0.768       0.768       0.000
  Chan2                JUNCTION      6.99    12.64     0  02:22        1.22        1.99       0.000
  Chan3                JUNCTION      0.00    12.52     0  02:29           0        1.99       0.000
  Chan4                JUNCTION      0.00    12.43     0  02:37           0        1.98       0.000
  Chan5                JUNCTION      7.00    13.47     0  02:23        1.22        2.44       0.000
  Chan6                JUNCTION      6.99     6.99     0  02:15        1.22        1.22       0.000
  Node7                OUTFALL       0.00    25.35     0  02:40           0        4.42       0.000
  
  
  *********************
  Node Flooding Summary
  *********************
  
  No nodes were flooded.
  
  
  ***********************
  Outfall Loading Summary
  ***********************
  
  -----------------------------------------------------------
                         Flow       Avg       Max       Total
                         Freq      Flow      Flow      Volume
  Outfall Node           Pcnt       CFS       CFS    10^6 gal
  -----------------------------------------------------------
  Node7                 99.35      4.59     25.35       4.421
  -----------------------------------------------------------
  System                99.35      4.59     25.35       4.421
  
  
  ********************
  Link Flow Summary
  ********************
  
  -----------------------------------------------------------------------------
                                 Maximum  Time of Max   Maximum    Max/    Max/
                                  |Flow|   Occurrence   |Veloc|    Full    Full
  Link                 Type          CFS  days hr:min    ft/sec    Flow   Depth
  -----------------------------------------------------------------------------
  Chan1                CONDUIT      5.89     0  02:25      2.88    0.00    0.06
  Chan2                CONDUIT     12.52     0  02:29      3.59    0.01    0.09
  Chan3                CONDUIT     12.43     0  02:37      3.58    0.01    0.09
  Chan4                CONDUIT     12.36     0  02:44      3.57    0.01    0.09
  Chan5                CONDUIT     13.36     0  02:30      3.65    0.01    0.09
  Chan6                CONDUIT      6.75     0  02:26      2.99    0.00    0.07
  
  
  *************************
  Conduit Surcharge Summary
  *************************
  
  No conduits were surcharged.
  

  Analysis begun on:  Wed Jan 02 08:33:47 2019
  Analysis ended on:  Wed Jan 02 08:33:47 2019
  Total elapsed time: < 1 sec