
  EPA STORM WATER MANAGEMENT MODEL - VERSION 5.1 (Build 5.1.012)
  --------------------------------------------------------------

   SW 2 9 8 9 8 
  
  WARNING 09: time series interval greater than recording interval for Rain Gage GAGE1
  WARNING 09: time series interval greater than recording interval for Rain Gage GAGE2
  
  *************
  Element Count
  *************
  Number of rain gages ...... 2
  Number of subcatchments ... 4
  Number of nodes ........... 7
  Number of links ........... 6
  Number of pollutants ...... 0
  Number of land uses ....... 0
  
  
  ****************
  Raingage Summary
  ****************
                                                      Data       Recording
  Name                 Data Source                    Type       Interval 
  ------------------------------------------------------------------------
  GAGE1                RainSeries1                    VOLUME      15 min.
  GAGE2                RainSeries2                    VOLUME      15 min.
  
  
  ********************
  Subcatchment Summary
  ********************
  Name                       Area     Width   %Imperv    %Slope Rain Gage            Outlet              
  -----------------------------------------------------------------------------------------------------------
  S1                       300.00     10.00     10.00    0.1000 GAGE1                S4                  
  S2                       500.00     10.00     10.00    0.1000 GAGE2                3                   
  S3                       500.00     10.00     10.00    0.1000 GAGE2                6                   
  S4                       500.00     10.00     10.00    0.1000 GAGE1                1                   
  
  
  ************
  Node Summary
  ************
                                           Invert      Max.    Ponded    External
  Name                 Type                 Elev.     Depth      Area    Inflow  
  -------------------------------------------------------------------------------
  1                    JUNCTION             20.00     20.00       0.0
  2                    JUNCTION             10.00     20.00       0.0
  3                    JUNCTION             20.00     20.00       0.0
  4                    JUNCTION             10.00     20.00       0.0
  5                    JUNCTION             10.00     20.00       0.0
  6                    JUNCTION             20.00     20.00       0.0
  7                    OUTFALL               0.00     10.00       0.0
  
  
  ************
  Link Summary
  ************
  Name             From Node        To Node          Type            Length    %Slope Roughness
  ---------------------------------------------------------------------------------------------
  1                1                2                CONDUIT         2000.0    0.5000    0.0200
  2                2                7                CONDUIT         2000.0    0.5000    0.0200
  3                3                4                CONDUIT         2000.0    0.5000    0.0200
  4                4                7                CONDUIT         2000.0    0.5000    0.0200
  5                5                7                CONDUIT         2000.0    0.5000    0.0200
  6                6                5                CONDUIT         2000.0    0.5000    0.0200
  
  
  *********************
  Cross Section Summary
  *********************
                                        Full     Full     Hyd.     Max.   No. of     Full
  Conduit          Shape               Depth     Area     Rad.    Width  Barrels     Flow
  ---------------------------------------------------------------------------------------
  1                PARABOLIC           10.00   133.33     4.51    20.00        1  1911.56
  2                PARABOLIC           10.00   133.33     4.51    20.00        1  1911.56
  3                PARABOLIC           10.00   133.33     4.51    20.00        1  1911.56
  4                PARABOLIC           10.00   133.33     4.51    20.00        1  1911.56
  5                PARABOLIC           10.00   133.33     4.51    20.00        1  1911.56
  6                PARABOLIC           10.00   133.33     4.51    20.00        1  1911.56
  
  
  
  *********************************************************
  NOTE: The summary statistics displayed in this report are
  based on results found at every computational time step,  
  not just on results from each reporting time step.
  *********************************************************
  
  ****************
  Analysis Options
  ****************
  Flow Units ............... CFS
  Process Models:
    Rainfall/Runoff ........ YES
    RDII ................... NO
    Snowmelt ............... NO
    Groundwater ............ YES
    Flow Routing ........... YES
    Ponding Allowed ........ NO
    Water Quality .......... NO
  Infiltration Method ...... GREEN_AMPT
  Flow Routing Method ...... KINWAVE
  Starting Date ............ 07/01/1987 00:00:00
  Ending Date .............. 07/02/1987 12:00:00
  Antecedent Dry Days ...... 0.0
  Report Time Step ......... 00:15:00
  Wet Time Step ............ 00:15:00
  Dry Time Step ............ 23:00:00
  Routing Time Step ........ 30.00 sec
  
  
  **************************        Volume         Depth
  Runoff Quantity Continuity     acre-feet        inches
  **************************     ---------       -------
  Total Precipitation ......      2791.667        18.611
  Evaporation Loss .........        11.656         0.078
  Infiltration Loss ........      2476.878        16.513
  Surface Runoff ...........       130.129         0.868
  Final Storage ............       173.468         1.156
  Continuity Error (%) .....        -0.017
  
  
  **************************        Volume         Depth
  Groundwater Continuity         acre-feet        inches
  **************************     ---------       -------
  Initial Storage ..........      5903.560        88.553
  Infiltration .............      1137.363        17.060
  Upper Zone ET ............         0.993         0.015
  Lower Zone ET ............         0.957         0.014
  Deep Percolation .........         3.788         0.057
  Groundwater Flow .........         0.000         0.000
  Final Storage ............      7035.194       105.528
  Continuity Error (%) .....        -0.000
  
  
  **************************        Volume        Volume
  Flow Routing Continuity        acre-feet      10^6 gal
  **************************     ---------     ---------
  Dry Weather Inflow .......         0.000         0.000
  Wet Weather Inflow .......       129.832        42.308
  Groundwater Inflow .......         0.000         0.000
  RDII Inflow ..............         0.000         0.000
  External Inflow ..........         0.000         0.000
  External Outflow .........       129.070        42.059
  Flooding Loss ............         0.000         0.000
  Evaporation Loss .........         0.020         0.007
  Exfiltration Loss ........         0.000         0.000
  Initial Stored Volume ....         0.000         0.000
  Final Stored Volume ......         0.754         0.246
  Continuity Error (%) .....        -0.009
  
  
  ********************************
  Highest Flow Instability Indexes
  ********************************
  All links are stable.
  
  
  *************************
  Routing Time Step Summary
  *************************
  Minimum Time Step           :    30.00 sec
  Average Time Step           :    30.00 sec
  Maximum Time Step           :    30.00 sec
  Percent in Steady State     :     0.00
  Average Iterations per Step :     1.00
  Percent Not Converging      :     0.00
  
  
  ***************************
  Subcatchment Runoff Summary
  ***************************
  
  --------------------------------------------------------------------------------------------------------
                            Total      Total      Total      Total      Total       Total     Peak  Runoff
                           Precip      Runon       Evap      Infil     Runoff      Runoff   Runoff   Coeff
  Subcatchment                 in         in         in         in         in    10^6 gal      CFS
  --------------------------------------------------------------------------------------------------------
  S1                        10.00       0.00       0.04       8.98       0.53        4.31     8.53   0.053
  S2                        25.50       0.00       0.15      21.91       1.36       18.46    33.84   0.053
  S3                        25.50       0.00       0.07      22.88       1.36       18.46    33.84   0.053
  S4                        10.00       0.32       0.04       9.26       0.40        5.48     8.85   0.039
  
  
  *******************
  Groundwater Summary
  *******************
  
  -----------------------------------------------------------------------------------------------------
                                            Total    Total  Maximum  Average  Average    Final    Final
                          Total    Total    Lower  Lateral  Lateral    Upper    Water    Upper    Water
                          Infil     Evap  Seepage  Outflow  Outflow   Moist.    Table   Moist.    Table
  Subcatchment               in       in       in       in      CFS                ft                ft
  -----------------------------------------------------------------------------------------------------
  S1                       8.98     0.08     0.05     0.00     0.00     0.30    12.83     0.30    13.25
  S2                      21.91     0.00     0.06     0.00     0.00     0.35    17.56     0.37    20.00
  
  
  ******************
  Node Depth Summary
  ******************
  
  ---------------------------------------------------------------------------------
                                 Average  Maximum  Maximum  Time of Max    Reported
                                   Depth    Depth      HGL   Occurrence   Max Depth
  Node                 Type         Feet     Feet     Feet  days hr:min        Feet
  ---------------------------------------------------------------------------------
  1                    JUNCTION     0.60     0.75    20.75     0  02:15        0.75
  2                    JUNCTION     0.60     0.75    10.75     0  02:32        0.75
  3                    JUNCTION     1.04     1.41    21.41     0  07:15        1.41
  4                    JUNCTION     1.03     1.41    11.41     0  07:25        1.41
  5                    JUNCTION     1.03     1.41    11.41     0  07:25        1.41
  6                    JUNCTION     1.04     1.41    21.41     0  07:15        1.41
  7                    OUTFALL      1.05     1.41     1.41     0  07:32        1.41
  
  
  *******************
  Node Inflow Summary
  *******************
  
  -------------------------------------------------------------------------------------------------
                                  Maximum  Maximum                  Lateral       Total        Flow
                                  Lateral    Total  Time of Max      Inflow      Inflow     Balance
                                   Inflow   Inflow   Occurrence      Volume      Volume       Error
  Node                 Type           CFS      CFS  days hr:min    10^6 gal    10^6 gal     Percent
  -------------------------------------------------------------------------------------------------
  1                    JUNCTION      8.85     8.85     0  02:15        5.47        5.47       0.000
  2                    JUNCTION      0.00     8.74     0  02:32           0        5.45       0.000
  3                    JUNCTION     33.84    33.84     0  07:15        18.4        18.4       0.000
  4                    JUNCTION      0.00    33.60     0  07:25           0        18.4       0.000
  5                    JUNCTION      0.00    33.60     0  07:25           0        18.4       0.000
  6                    JUNCTION     33.84    33.84     0  07:15        18.4        18.4       0.000
  7                    OUTFALL       0.00    74.51     0  07:32           0        42.1       0.000
  
  
  *********************
  Node Flooding Summary
  *********************
  
  No nodes were flooded.
  
  
  ***********************
  Outfall Loading Summary
  ***********************
  
  -----------------------------------------------------------
                         Flow       Avg       Max       Total
                         Freq      Flow      Flow      Volume
  Outfall Node           Pcnt       CFS       CFS    10^6 gal
  -----------------------------------------------------------
  7                     98.89     43.87     74.51      42.056
  -----------------------------------------------------------
  System                98.89     43.87     74.51      42.056
  
  
  ********************
  Link Flow Summary
  ********************
  
  -----------------------------------------------------------------------------
                                 Maximum  Time of Max   Maximum    Max/    Max/
                                  |Flow|   Occurrence   |Veloc|    Full    Full
  Link                 Type          CFS  days hr:min    ft/sec    Flow   Depth
  -----------------------------------------------------------------------------
  1                    CONDUIT      8.74     0  02:32      3.21    0.00    0.07
  2                    CONDUIT      8.71     0  02:43      3.20    0.00    0.07
  3                    CONDUIT     33.60     0  07:25      4.77    0.02    0.14
  4                    CONDUIT     33.52     0  07:32      4.77    0.02    0.14
  5                    CONDUIT     33.52     0  07:32      4.77    0.02    0.14
  6                    CONDUIT     33.60     0  07:25      4.77    0.02    0.14
  
  
  *************************
  Conduit Surcharge Summary
  *************************
  
  No conduits were surcharged.
  

  Analysis begun on:  Wed Jan 02 08:33:46 2019
  Analysis ended on:  Wed Jan 02 08:33:46 2019
  Total elapsed time: < 1 sec