
  EPA STORM WATER MANAGEMENT MODEL - VERSION 5.1 (Build 5.1.012)
  --------------------------------------------------------------

   SW 1 0 1 
  
  WARNING 08: elevation drop exceeds length for Conduit 1050
  WARNING 08: elevation drop exceeds length for Conduit 1010
  WARNING 08: elevation drop exceeds length for Conduit 1030
  
  *************
  Element Count
  *************
  Number of rain gages ...... 1
  Number of subcatchments ... 15
  Number of nodes ........... 19
  Number of links ........... 16
  Number of pollutants ...... 0
  Number of land uses ....... 0
  
  
  ****************
  Raingage Summary
  ****************
                                                      Data       Recording
  Name                 Data Source                    Type       Interval 
  ------------------------------------------------------------------------
  GAGE1                RainSeries1                    VOLUME       5 min.
  
  
  ********************
  Subcatchment Summary
  ********************
  Name                       Area     Width   %Imperv    %Slope Rain Gage            Outlet              
  -----------------------------------------------------------------------------------------------------------
  200                        2.50    150.00     25.00   10.0000 GAGE1                2020                
  210                        2.40    230.00     20.00   10.0000 GAGE1                1030                
  220                        1.00     60.00     25.00   10.0000 GAGE1                1070                
  221                        0.90     90.00     20.00   10.0000 GAGE1                3010                
  222                        2.15    170.00     20.00   10.0000 GAGE1                1080                
  223                        0.83     80.00     25.00   10.0000 GAGE1                1060                
  230                        1.00     90.00     20.00   10.0000 GAGE1                5010                
  235                        0.23     60.00     50.00   10.0000 GAGE1                4030                
  236                        0.33    100.00     90.00   10.0000 GAGE1                4020                
  240                        1.68    100.00     30.00   10.0000 GAGE1                1050                
  250                        2.08    200.00     20.00   10.0000 GAGE1                1030                
  255                        0.70    220.00     90.00   10.0000 GAGE1                1010                
  260                        0.68    180.00     90.00   10.0000 GAGE1                1010                
  265                        0.40     50.00     90.00   10.0000 GAGE1                6030                
  266                        0.25     70.00     90.00   10.0000 GAGE1                6040                
  
  
  ************
  Node Summary
  ************
                                           Invert      Max.    Ponded    External
  Name                 Type                 Elev.     Depth      Area    Inflow  
  -------------------------------------------------------------------------------
  1050                 JUNCTION            100.00     20.00       0.0
  1010                 JUNCTION            100.00     20.00       0.0
  1030                 JUNCTION            100.00     20.00       0.0
  1060                 JUNCTION            102.45     20.00       0.0
  1070                 JUNCTION            106.72     20.00       0.0
  1080                 JUNCTION            111.37     20.00       0.0
  2010                 JUNCTION            102.85     20.00       0.0
  2020                 JUNCTION            105.00     20.00       0.0
  3010                 JUNCTION            110.72     20.00       0.0
  4010                 JUNCTION            102.20     20.00       0.0
  4020                 JUNCTION            108.12     20.00       0.0
  4030                 JUNCTION            112.02     20.00       0.0
  5010                 JUNCTION            106.20     20.00       0.0
  6020                 JUNCTION            108.27     20.00       0.0
  6030                 JUNCTION            116.37     20.00       0.0
  6040                 JUNCTION            117.87     20.00       0.0
  1046                 JUNCTION              0.00      4.00       0.0
  1009                 JUNCTION              0.00      4.00       0.0
  1029                 OUTFALL               0.00      4.00       0.0
  
  
  ************
  Link Summary
  ************
  Name             From Node        To Node          Type            Length    %Slope Roughness
  ---------------------------------------------------------------------------------------------
  1050             1050             1046             CONDUIT          100.0  100.0000    0.0120
  1010             1010             1009             CONDUIT          100.0  100.0000    0.0120
  1030             1030             1029             CONDUIT          100.0  100.0000    0.0120
  1060             1060             1050             CONDUIT           72.0    3.4047    0.0200
  1070             1070             1060             CONDUIT           75.0    5.7026    0.0200
  1080             1080             1070             CONDUIT           62.0    7.5212    0.0200
  2010             2010             1050             CONDUIT           57.0    5.0063    0.0200
  2020             2020             2010             CONDUIT           39.0    5.5212    0.0200
  3010             3010             1070             CONDUIT           50.0    8.0257    0.0200
  4010             4010             1050             CONDUIT           38.0    5.7992    0.0200
  4020             4020             4010             CONDUIT           51.0   11.6868    0.0200
  4030             4030             4020             CONDUIT           52.0    7.5212    0.0200
  5010             5010             4010             CONDUIT           74.0    5.4133    0.0200
  6020             6020             1010             CONDUIT           95.0    8.7384    0.0200
  6030             6030             6020             CONDUIT           90.0    9.0367    0.0200
  6040             6040             6030             CONDUIT           50.0    3.0014    0.0200
  
  
  *********************
  Cross Section Summary
  *********************
                                        Full     Full     Hyd.     Max.   No. of     Full
  Conduit          Shape               Depth     Area     Rad.    Width  Barrels     Flow
  ---------------------------------------------------------------------------------------
  1050             CIRCULAR             4.00    12.57     1.00     4.00        1  1047.37
  1010             CIRCULAR             4.00    12.57     1.00     4.00        1  1047.37
  1030             CIRCULAR             4.00    12.57     1.00     4.00        1  1047.37
  1060             CIRCULAR             0.38     0.11     0.09     0.38        1     0.22
  1070             CIRCULAR             0.31     0.08     0.08     0.31        1     0.16
  1080             CIRCULAR             0.31     0.08     0.08     0.31        1     0.19
  2010             CIRCULAR             0.38     0.11     0.09     0.38        1     0.26
  2020             CIRCULAR             0.31     0.08     0.08     0.31        1     0.16
  3010             CIRCULAR             0.23     0.04     0.06     0.23        1     0.09
  4010             CIRCULAR             0.23     0.04     0.06     0.23        1     0.07
  4020             CIRCULAR             0.23     0.04     0.06     0.23        1     0.11
  4030             CIRCULAR             0.23     0.04     0.06     0.23        1     0.08
  5010             CIRCULAR             0.23     0.04     0.06     0.23        1     0.07
  6020             CIRCULAR             0.23     0.04     0.06     0.23        1     0.09
  6030             CIRCULAR             0.23     0.04     0.06     0.23        1     0.09
  6040             CIRCULAR             0.23     0.04     0.06     0.23        1     0.05
  
  
  
  *********************************************************
  NOTE: The summary statistics displayed in this report are
  based on results found at every computational time step,  
  not just on results from each reporting time step.
  *********************************************************
  
  ****************
  Analysis Options
  ****************
  Flow Units ............... CMS
  Process Models:
    Rainfall/Runoff ........ YES
    RDII ................... NO
    Snowmelt ............... NO
    Groundwater ............ NO
    Flow Routing ........... YES
    Ponding Allowed ........ NO
    Water Quality .......... NO
  Infiltration Method ...... GREEN_AMPT
  Flow Routing Method ...... KINWAVE
  Starting Date ............ 12/30/1988 14:10:00
  Ending Date .............. 12/30/1988 15:50:00
  Antecedent Dry Days ...... 0.0
  Report Time Step ......... 00:15:00
  Wet Time Step ............ 00:01:00
  Dry Time Step ............ 00:01:00
  Routing Time Step ........ 30.00 sec
  
  
  **************************        Volume         Depth
  Runoff Quantity Continuity     hectare-m            mm
  **************************     ---------       -------
  Total Precipitation ......         1.089        63.600
  Evaporation Loss .........         0.000         0.007
  Infiltration Loss ........         0.173        10.092
  Surface Runoff ...........         0.868        50.669
  Final Storage ............         0.049         2.882
  Continuity Error (%) .....        -0.078
  
  
  **************************        Volume        Volume
  Flow Routing Continuity        hectare-m      10^6 ltr
  **************************     ---------     ---------
  Dry Weather Inflow .......         0.000         0.000
  Wet Weather Inflow .......         0.867         8.670
  Groundwater Inflow .......         0.000         0.000
  RDII Inflow ..............         0.000         0.000
  External Inflow ..........         0.000         0.000
  External Outflow .........         0.632         6.320
  Flooding Loss ............         0.235         2.355
  Evaporation Loss .........         0.000         0.000
  Exfiltration Loss ........         0.000         0.000
  Initial Stored Volume ....         0.000         0.000
  Final Stored Volume ......         0.001         0.012
  Continuity Error (%) .....        -0.195
  
  
  ********************************
  Highest Flow Instability Indexes
  ********************************
  Link 1060 (11)
  Link 1080 (11)
  Link 1050 (10)
  Link 6040 (10)
  Link 3010 (9)
  
  
  *************************
  Routing Time Step Summary
  *************************
  Minimum Time Step           :    30.00 sec
  Average Time Step           :    30.00 sec
  Maximum Time Step           :    30.00 sec
  Percent in Steady State     :     0.00
  Average Iterations per Step :     2.10
  Percent Not Converging      :     0.00
  
  
  ***************************
  Subcatchment Runoff Summary
  ***************************
  
  --------------------------------------------------------------------------------------------------------
                            Total      Total      Total      Total      Total       Total     Peak  Runoff
                           Precip      Runon       Evap      Infil     Runoff      Runoff   Runoff   Coeff
  Subcatchment                 mm         mm         mm         mm         mm    10^6 ltr      CMS
  --------------------------------------------------------------------------------------------------------
  200                       63.60       0.00       0.01      11.24      48.32        1.21     0.44   0.760
  210                       63.60       0.00       0.01      11.92      49.04        1.18     0.46   0.771
  220                       63.60       0.00       0.01      11.24      48.32        0.48     0.18   0.760
  221                       63.60       0.00       0.01      11.92      49.18        0.44     0.17   0.773
  222                       63.60       0.00       0.01      11.95      48.35        1.04     0.39   0.760
  223                       63.60       0.00       0.01      11.17      50.08        0.42     0.16   0.787
  230                       63.60       0.00       0.01      11.93      48.83        0.49     0.19   0.768
  235                       63.60       0.00       0.01       7.36      55.90        0.13     0.06   0.879
  236                       63.60       0.00       0.01       1.35      61.47        0.20     0.10   0.966
  240                       63.60       0.00       0.01      10.48      49.44        0.83     0.31   0.777
  250                       63.60       0.00       0.01      11.92      49.05        1.02     0.40   0.771
  255                       63.60       0.00       0.01       1.35      61.49        0.43     0.21   0.967
  260                       63.60       0.00       0.01       1.35      61.37        0.42     0.20   0.965
  265                       63.60       0.00       0.01       1.40      60.45        0.24     0.11   0.950
  266                       63.60       0.00       0.01       1.35      61.41        0.15     0.07   0.966
  
  
  ******************
  Node Depth Summary
  ******************
  
  ---------------------------------------------------------------------------------
                                 Average  Maximum  Maximum  Time of Max    Reported
                                   Depth    Depth      HGL   Occurrence   Max Depth
  Node                 Type       Meters   Meters   Meters  days hr:min      Meters
  ---------------------------------------------------------------------------------
  1050                 JUNCTION     0.29     0.38   100.38     0  00:19        0.38
  1010                 JUNCTION     0.13     0.20   100.20     0  00:40        0.19
  1030                 JUNCTION     0.05     0.09   100.09     0  00:35        0.08
  1060                 JUNCTION    12.56    20.00   122.45     0  00:16       20.00
  1070                 JUNCTION    13.84    20.00   126.72     0  00:15       20.00
  1080                 JUNCTION    10.56    20.00   131.37     0  00:19       20.00
  2010                 JUNCTION     0.24     0.31   103.16     0  00:18        0.31
  2020                 JUNCTION    12.54    20.00   125.00     0  00:17       20.00
  3010                 JUNCTION     9.25    20.00   130.72     0  00:19       20.00
  4010                 JUNCTION    13.53    20.00   122.20     0  00:13       20.00
  4020                 JUNCTION     3.67    20.00   128.12     0  00:18        0.18
  4030                 JUNCTION     0.07     0.15   112.17     0  00:25        0.11
  5010                 JUNCTION    12.03    20.00   126.20     0  00:17       20.00
  6020                 JUNCTION     5.18    20.00   128.27     0  00:17       20.00
  6030                 JUNCTION     5.08    20.00   136.37     0  00:17       20.00
  6040                 JUNCTION     2.78    20.00   137.87     0  00:18        0.16
  1046                 JUNCTION     3.84     4.00     4.00     0  00:04        4.00
  1009                 JUNCTION     3.90     4.00     4.00     0  00:03        4.00
  1029                 OUTFALL      0.05     0.09     0.09     0  00:35        0.08
  
  
  *******************
  Node Inflow Summary
  *******************
  
  -------------------------------------------------------------------------------------------------
                                  Maximum  Maximum                  Lateral       Total        Flow
                                  Lateral    Total  Time of Max      Inflow      Inflow     Balance
                                   Inflow   Inflow   Occurrence      Volume      Volume       Error
  Node                 Type           CMS      CMS  days hr:min    10^6 ltr    10^6 ltr     Percent
  -------------------------------------------------------------------------------------------------
  1050                 JUNCTION     0.306    0.760     0  00:35        0.83        2.95       0.000
  1010                 JUNCTION     0.403    0.496     0  00:25       0.848        1.18       0.000
  1030                 JUNCTION     0.853    0.853     0  00:35         2.2        2.19       0.000
  1060                 JUNCTION     0.162    0.326     0  00:35       0.415        1.21      -0.000
  1070                 JUNCTION     0.176    0.452     0  00:35       0.483        1.63      -0.000
  1080                 JUNCTION     0.393    0.393     0  00:35        1.04        1.04       0.000
  2010                 JUNCTION     0.000    0.174     0  01:18           0       0.733       0.000
  2020                 JUNCTION     0.441    0.441     0  00:35        1.21        1.21       0.000
  3010                 JUNCTION     0.173    0.173     0  00:35       0.442       0.442      -0.000
  4010                 JUNCTION     0.000    0.183     0  00:37           0       0.623      -0.000
  4020                 JUNCTION     0.097    0.160     0  00:25       0.203       0.331       0.000
  4030                 JUNCTION     0.064    0.064     0  00:25       0.129       0.129       0.000
  5010                 JUNCTION     0.188    0.188     0  00:35       0.488       0.488      -0.000
  6020                 JUNCTION     0.000    0.099     0  00:39           0       0.333       0.000
  6030                 JUNCTION     0.107    0.161     0  00:25       0.242       0.389       0.000
  6040                 JUNCTION     0.073    0.073     0  00:25       0.153       0.153       0.000
  1046                 JUNCTION     0.000    0.759     0  00:35           0        2.95       0.000
  1009                 JUNCTION     0.000    0.495     0  00:25           0        1.18       0.000
  1029                 OUTFALL      0.000    0.851     0  00:35           0        2.19       0.000
  
  
  *********************
  Node Flooding Summary
  *********************
  
  Flooding refers to all water that overflows a node, whether it ponds or not.
  --------------------------------------------------------------------------
                                                             Total   Maximum
                                 Maximum   Time of Max       Flood    Ponded
                        Hours       Rate    Occurrence      Volume    Volume
  Node                 Flooded       CMS   days hr:min    10^6 ltr   1000 m3
  --------------------------------------------------------------------------
  1060                    1.04     0.107      0  00:35       0.175     0.000
  1070                    1.15     0.287      0  00:35       0.837     0.000
  1080                    0.88     0.202      0  00:35       0.245     0.000
  2020                    1.04     0.276      0  00:35       0.473     0.000
  3010                    0.77     0.084      0  00:35       0.088     0.000
  4010                    1.13     0.107      0  00:29       0.274     0.000
  4020                    0.30     0.054      0  00:25       0.024     0.000
  5010                    1.00     0.115      0  00:35       0.172     0.000
  6020                    0.42     0.008      0  00:39       0.003     0.000
  6030                    0.42     0.067      0  00:25       0.056     0.000
  6040                    0.23     0.019      0  00:25       0.007     0.000
  
  
  ***********************
  Outfall Loading Summary
  ***********************
  
  -----------------------------------------------------------
                         Flow       Avg       Max       Total
                         Freq      Flow      Flow      Volume
  Outfall Node           Pcnt       CMS       CMS    10^6 ltr
  -----------------------------------------------------------
  1029                  97.50     0.375     0.851       2.195
  -----------------------------------------------------------
  System                97.50     0.375     0.851       2.195
  
  
  ********************
  Link Flow Summary
  ********************
  
  -----------------------------------------------------------------------------
                                 Maximum  Time of Max   Maximum    Max/    Max/
                                  |Flow|   Occurrence   |Veloc|    Full    Full
  Link                 Type          CMS  days hr:min     m/sec    Flow   Depth
  -----------------------------------------------------------------------------
  1050                 CONDUIT     0.759     0  00:35     12.12    0.00    0.02
  1010                 CONDUIT     0.495     0  00:25     10.51    0.00    0.02
  1030                 CONDUIT     0.851     0  00:35     12.50    0.00    0.02
  1060                 CONDUIT     0.233     0  00:45      2.25    1.07    1.00
  1070                 CONDUIT     0.171     0  01:24      2.59    1.04    1.00
  1080                 CONDUIT     0.201     0  00:44      2.97    1.07    1.00
  2010                 CONDUIT     0.170     0  01:19      2.51    0.64    0.58
  2020                 CONDUIT     0.174     0  01:18      2.49    1.08    1.00
  3010                 CONDUIT     0.094     0  01:00      2.49    1.07    1.00
  4010                 CONDUIT     0.077     0  01:20      2.12    1.03    1.00
  4020                 CONDUIT     0.111     0  00:37      3.07    1.05    1.00
  4030                 CONDUIT     0.063     0  00:25      2.28    0.75    0.65
  5010                 CONDUIT     0.076     0  01:05      2.08    1.06    1.00
  6020                 CONDUIT     0.097     0  00:40      2.60    1.06    0.93
  6030                 CONDUIT     0.099     0  00:39      2.64    1.07    1.00
  6040                 CONDUIT     0.057     0  00:36      1.55    1.06    1.00
  
  
  *************************
  Conduit Surcharge Summary
  *************************
  
  ----------------------------------------------------------------------------
                                                           Hours        Hours 
                         --------- Hours Full --------   Above Full   Capacity
  Conduit                Both Ends  Upstream  Dnstream   Normal Flow   Limited
  ----------------------------------------------------------------------------
  1060                        1.03      1.03      1.03      1.03         1.03
  1070                        1.14      1.14      1.14      1.15         1.14
  1080                        0.85      0.85      0.85      0.12         0.85
  2020                        1.03      1.03      1.03      1.03         1.03
  3010                        0.74      0.74      0.74      0.74         0.74
  4010                        1.12      1.12      1.12      0.02         1.12
  4020                        0.28      0.28      0.28      0.07         0.28
  5010                        0.98      0.98      0.98      0.04         0.98
  6020                        0.41      0.41      0.41      0.41         0.41
  6030                        0.40      0.40      0.40      0.41         0.40
  6040                        0.21      0.21      0.21      0.22         0.21
  

  Analysis begun on:  Wed Jan 02 08:33:47 2019
  Analysis ended on:  Wed Jan 02 08:33:47 2019
  Total elapsed time: < 1 sec