
  EPA STORM WATER MANAGEMENT MODEL - VERSION 5.1 (Build 5.1.012)
  --------------------------------------------------------------

  
  ERROR 205: invalid keyword RULE_STEP at line 31 of [OPTION] section:
  RULE_STEP
  
  ERROR 205: invalid keyword SURCHARGE_METHOD at line 42 of [OPTION] section:
  SURCHARGE_METHOD

  Analysis begun on:  Wed Jan 02 04:57:25 2019
  Analysis ended on:  Wed Jan 02 04:57:25 2019
  Total elapsed time: < 1 sec