
  EPA STORM WATER MANAGEMENT MODEL - VERSION 5.1 (Build 5.1.012)
  --------------------------------------------------------------

  
  ERROR 101: memory allocation error.

  Analysis begun on:  Wed Jan 02 08:37:27 2019
  Analysis ended on:  Wed Jan 02 08:37:32 2019
  Total elapsed time: 00:00:05