
  EPA STORM WATER MANAGEMENT MODEL - VERSION 5.1 (Build 5.1.012)
  --------------------------------------------------------------

  Scenario Run :  SCN-10 
  
  
  *********************************************************
  NOTE: The summary statistics displayed in this report are
  based on results found at every computational time step,  
  not just on results from each reporting time step.
  *********************************************************
  
  ****************
  Analysis Options
  ****************
  Flow Units ............... LPS
  Process Models:
    Rainfall/Runoff ........ YES
    RDII ................... YES
    Snowmelt ............... NO
    Groundwater ............ YES
    Flow Routing ........... YES
    Ponding Allowed ........ NO
    Water Quality .......... NO
  Infiltration Method ...... GREEN_AMPT
  Flow Routing Method ...... DYNWAVE
  Starting Date ............ 07/15/1977 00:00:00
  Ending Date .............. 07/17/1977 00:00:00
  Antecedent Dry Days ...... 7.0
  Report Time Step ......... 00:10:00
  Wet Time Step ............ 00:01:00
  Dry Time Step ............ 00:01:00
  Routing Time Step ........ 30.00 sec
  Variable Time Step ....... YES
  Maximum Trials ........... 4
  Number of Threads ........ 1
  Head Tolerance ........... 0.005000 m
  
  
  **************************        Volume         Depth
  Runoff Quantity Continuity     hectare-m            mm
  **************************     ---------       -------
  Total Precipitation ......       254.506        41.729
  Evaporation Loss .........        20.809         3.412
  Infiltration Loss ........       113.186        18.558
  Surface Runoff ...........        90.227        14.794
  Final Storage ............        30.290         4.966
  Continuity Error (%) .....        -0.002
  
  
  **************************        Volume         Depth
  Groundwater Continuity         hectare-m            mm
  **************************     ---------       -------
  Initial Storage ..........     11667.387      1913.000
  Infiltration .............       113.186        18.558
  Upper Zone ET ............         0.651         0.107
  Lower Zone ET ............         1.191         0.195
  Deep Percolation .........       653.550       107.157
  Groundwater Flow .........       -48.235        -7.909
  Final Storage ............     11173.566      1832.033
  Continuity Error (%) .....        -0.001
  
  
  **************************        Volume        Volume
  Flow Routing Continuity        hectare-m      10^6 ltr
  **************************     ---------     ---------
  Dry Weather Inflow .......         0.000         0.000
  Wet Weather Inflow .......        90.225       902.263
  Groundwater Inflow .......       -48.236      -482.369
  RDII Inflow ..............         0.000         0.000
  External Inflow ..........         0.035         0.346
  External Outflow .........         1.069        10.690
  Flooding Loss ............        38.474       384.743
  Evaporation Loss .........         0.000         0.004
  Exfiltration Loss ........         0.000         0.000
  Initial Stored Volume ....         0.000         0.000
  Final Stored Volume ......         1.595        15.948
  Continuity Error (%) .....         0.981
  
  
  *************************
  Highest Continuity Errors
  *************************
  Node P005 (20.83%)
  Node P009 (6.08%)
  
  
  ***************************
  Time-Step Critical Elements
  ***************************
  None
  
  
  ********************************
  Highest Flow Instability Indexes
  ********************************
  Link 1 (43)
  Link P009 (22)
  Link P011 (3)
  Link CDT-11 (2)
  
  
  *************************
  Routing Time Step Summary
  *************************
  Minimum Time Step           :     4.03 sec
  Average Time Step           :    29.95 sec
  Maximum Time Step           :    30.00 sec
  Percent in Steady State     :     0.00
  Average Iterations per Step :     2.05
  Percent Not Converging      :     1.91
  
  
  ***************************
  Subcatchment Runoff Summary
  ***************************
  
  --------------------------------------------------------------------------------------------------------
                            Total      Total      Total      Total      Total       Total     Peak  Runoff
                           Precip      Runon       Evap      Infil     Runoff      Runoff   Runoff   Coeff
  Subcatchment                 mm         mm         mm         mm         mm    10^6 ltr      LPS
  --------------------------------------------------------------------------------------------------------
  CA-1                      41.73       0.00       0.91       8.45      32.38       10.69  2185.56   0.776
  CA-11                     41.73       0.00       3.45      18.72      14.52      870.95 18822.86   0.348
  CA-7                      41.73       0.00       1.28       9.67      30.77       10.16  1625.73   0.737
  CA-8                      41.73       0.00       1.11       8.86      31.77       10.48  1829.24   0.761
  
  
  *******************
  Groundwater Summary
  *******************
  
  -----------------------------------------------------------------------------------------------------
                                            Total    Total  Maximum  Average  Average    Final    Final
                          Total    Total    Lower  Lateral  Lateral    Upper    Water    Upper    Water
                          Infil     Evap  Seepage  Outflow  Outflow   Moist.    Table   Moist.    Table
  Subcatchment               mm       mm       mm       mm      LPS                 m                 m
  -----------------------------------------------------------------------------------------------------
  CA-1                     8.45     1.43   265.42     0.00     0.00     0.44     1.15     0.41     1.07
  CA-11                   18.72     0.29   106.14    -7.28 -9902.34     0.37     4.50     0.37     4.23
  CA-7                     9.67     0.88   124.59  -118.61 -2213.93     0.34     4.70     0.25     5.00
  CA-8                     8.86     1.33   115.47   -20.23 -1315.24     0.37     4.38     0.37     4.16
  
  
  ******************
  Node Depth Summary
  ******************
  
  ---------------------------------------------------------------------------------
                                 Average  Maximum  Maximum  Time of Max    Reported
                                   Depth    Depth      HGL   Occurrence   Max Depth
  Node                 Type       Meters   Meters   Meters  days hr:min      Meters
  ---------------------------------------------------------------------------------
  FLOWFROMSUB          JUNCTION     4.97     6.00    11.00     0  08:52        6.00
  OVERLANDNODE         JUNCTION     0.81     1.00    11.00     0  08:58        1.00
  P001                 JUNCTION     0.03     0.42     1.52     0  08:56        0.42
  P009                 JUNCTION     6.19     7.64    11.24     0  08:56        7.54
  OUTLET               OUTFALL      0.03     0.42     0.42     0  08:56        0.41
  P005                 STORAGE      8.10     9.68    11.26     0  08:56        9.53
  
  
  *******************
  Node Inflow Summary
  *******************
  
  -------------------------------------------------------------------------------------------------
                                  Maximum  Maximum                  Lateral       Total        Flow
                                  Lateral    Total  Time of Max      Inflow      Inflow     Balance
                                   Inflow   Inflow   Occurrence      Volume      Volume       Error
  Node                 Type           LPS      LPS  days hr:min    10^6 ltr    10^6 ltr     Percent
  -------------------------------------------------------------------------------------------------
  FLOWFROMSUB          JUNCTION   9593.58  9902.34     0  08:59         435         437       0.453
  OVERLANDNODE         JUNCTION      0.00   717.64     0  08:57           0       0.717      51.060
  P001                 JUNCTION   2185.56  2185.56     0  08:55        10.7        10.7       0.000
  P009                 JUNCTION   1415.07  1484.87     0  07:39        3.81        20.4       6.469
  OUTLET               OUTFALL       0.00  2097.68     0  08:56           0        10.7       0.000
  P005                 STORAGE   -1732.39  6553.96     0  08:52         -29        57.3      26.304
  
  
  **********************
  Node Surcharge Summary
  **********************
  
  Surcharging occurs when water rises above the top of the highest conduit.
  ---------------------------------------------------------------------
                                               Max. Height   Min. Depth
                                   Hours       Above Crown    Below Rim
  Node                 Type      Surcharged         Meters       Meters
  ---------------------------------------------------------------------
  FLOWFROMSUB          JUNCTION       39.91          3.500        0.000
  OVERLANDNODE         JUNCTION        5.48          0.000        0.000
  P009                 JUNCTION       40.28          5.392       12.358
  
  
  *********************
  Node Flooding Summary
  *********************
  
  Flooding refers to all water that overflows a node, whether it ponds or not.
  --------------------------------------------------------------------------
                                                             Total   Maximum
                                 Maximum   Time of Max       Flood    Ponded
                        Hours       Rate    Occurrence      Volume     Depth
  Node                 Flooded       LPS   days hr:min    10^6 ltr    Meters
  --------------------------------------------------------------------------
  FLOWFROMSUB            39.14   9895.19      0  08:59     384.298     0.000
  OVERLANDNODE            5.16    682.19      0  08:58       0.450     0.000
  
  
  **********************
  Storage Volume Summary
  **********************
  
  --------------------------------------------------------------------------------------------------
                         Average     Avg  Evap Exfil       Maximum     Max    Time of Max    Maximum
                          Volume    Pcnt  Pcnt  Pcnt        Volume    Pcnt     Occurrence    Outflow
  Storage Unit           1000 m3    Full  Loss  Loss       1000 m3    Full    days hr:min        LPS
  --------------------------------------------------------------------------------------------------
  P005                     8.098      40     0     0         9.678      48       0  08:56    2459.25
  
  
  ***********************
  Outfall Loading Summary
  ***********************
  
  -----------------------------------------------------------
                         Flow       Avg       Max       Total
                         Freq      Flow      Flow      Volume
  Outfall Node           Pcnt       LPS       LPS    10^6 ltr
  -----------------------------------------------------------
  OUTLET                30.62    205.21   2097.68      10.690
  -----------------------------------------------------------
  System                30.62    205.21   2097.68      10.690
  
  
  ********************
  Link Flow Summary
  ********************
  
  -----------------------------------------------------------------------------
                                 Maximum  Time of Max   Maximum    Max/    Max/
                                  |Flow|   Occurrence   |Veloc|    Full    Full
  Link                 Type          LPS  days hr:min     m/sec    Flow   Depth
  -----------------------------------------------------------------------------
  CDT-11               CONDUIT    717.64     0  08:57      1.13    0.26    1.00
  P001                 CONDUIT   2097.68     0  08:56      2.96    0.02    0.11
  P005                 CONDUIT      0.00     0  00:00      0.00    0.00    0.57
  P009                 CONDUIT   1338.67     0  08:51      1.64    0.08    1.00
  P011                 CONDUIT   5286.04     0  08:52      1.08    0.20    1.00
  1                    WEIR      1142.00     0  08:56                      1.00
  
  
  ***************************
  Flow Classification Summary
  ***************************
  
  -------------------------------------------------------------------------------------
                      Adjusted    ---------- Fraction of Time in Flow Class ---------- 
                       /Actual         Up    Down  Sub   Sup   Up    Down  Norm  Inlet 
  Conduit               Length    Dry  Dry   Dry   Crit  Crit  Crit  Crit  Ltd   Ctrl  
  -------------------------------------------------------------------------------------
  CDT-11                  1.00   0.00  0.18  0.00  0.82  0.00  0.00  0.00  0.00  0.00
  P001                    1.00   0.67  0.00  0.00  0.05  0.28  0.00  0.00  0.02  0.00
  P005                    1.00   0.00  0.00  0.00  1.00  0.00  0.00  0.00  0.00  0.00
  P009                    1.00   0.00  0.01  0.00  0.98  0.01  0.00  0.00  0.09  0.00
  P011                    1.00   0.00  0.00  0.00  1.00  0.00  0.00  0.00  0.16  0.00
  
  
  *************************
  Conduit Surcharge Summary
  *************************
  
  ----------------------------------------------------------------------------
                                                           Hours        Hours 
                         --------- Hours Full --------   Above Full   Capacity
  Conduit                Both Ends  Upstream  Dnstream   Normal Flow   Limited
  ----------------------------------------------------------------------------
  CDT-11                      5.16      5.16     39.25      0.01         0.01
  P009                       40.28     40.28     42.87      0.01         0.01
  P011                       39.91     39.91     41.38      0.01         0.01
  

  Analysis begun on:  Wed Jan 02 08:37:44 2019
  Analysis ended on:  Wed Jan 02 08:37:44 2019
  Total elapsed time: < 1 sec