
  EPA STORM WATER MANAGEMENT MODEL - VERSION 5.1 (Build 5.1.012)
  --------------------------------------------------------------

  WARNING 01: wet weather time step reduced to recording interval for Rain Gage BANGALOW_GAUGE
  WARNING 03: negative offset ignored for Link W000001751
  WARNING 03: negative offset ignored for Link W000001753
  WARNING 03: negative offset ignored for Link W000001991
  WARNING 03: negative offset ignored for Link W000008446
  WARNING 03: negative offset ignored for Link W000008447
  WARNING 03: negative offset ignored for Link W000008448
  WARNING 03: negative offset ignored for Link W000008454
  WARNING 03: negative offset ignored for Link W000008455
  WARNING 03: negative offset ignored for Link W000008457
  WARNING 03: negative offset ignored for Link W000008458
  WARNING 02: maximum depth increased for Node JCT-210
  WARNING 02: maximum depth increased for Node W000002518
  
  **********************           Volume        Volume
  Rainfall Dependent I/I        hectare-m      10^6 ltr
  **********************        ---------     ---------
  Sewershed Rainfall ......         2.348        23.477
  RDII Produced ...........         0.099         0.994
  RDII Ratio ..............         0.042
  
  
  *********************************************************
  NOTE: The summary statistics displayed in this report are
  based on results found at every computational time step,  
  not just on results from each reporting time step.
  *********************************************************
  
  ****************
  Analysis Options
  ****************
  Flow Units ............... LPS
  Process Models:
    Rainfall/Runoff ........ YES
    RDII ................... YES
    Snowmelt ............... NO
    Groundwater ............ NO
    Flow Routing ........... YES
    Ponding Allowed ........ NO
    Water Quality .......... NO
  Flow Routing Method ...... DYNWAVE
  Starting Date ............ 06/01/2009 00:00:00
  Ending Date .............. 06/05/2009 23:55:00
  Antecedent Dry Days ...... 5.0
  Report Time Step ......... 00:05:00
  Routing Time Step ........ 30.00 sec
  Variable Time Step ....... YES
  Maximum Trials ........... 4
  Number of Threads ........ 8
  Head Tolerance ........... 0.005000 m
  
  
  **************************        Volume        Volume
  Flow Routing Continuity        hectare-m      10^6 ltr
  **************************     ---------     ---------
  Dry Weather Inflow .......         0.000         0.000
  Wet Weather Inflow .......         0.000         0.000
  Groundwater Inflow .......         0.000         0.000
  RDII Inflow ..............         0.099         0.994
  External Inflow ..........         0.000         0.000
  External Outflow .........         0.111         1.108
  Flooding Loss ............         0.000         0.005
  Evaporation Loss .........         0.000         0.000
  Exfiltration Loss ........         0.000         0.000
  Initial Stored Volume ....         0.003         0.031
  Final Stored Volume ......         0.005         0.048
  Continuity Error (%) .....       -13.357
  
  
  *************************
  Highest Continuity Errors
  *************************
  Node W000002518 (93.50%)
  Node W000002772 (36.51%)
  Node W000002770 (16.01%)
  Node W000002519 (14.25%)
  Node JCT-202 (-12.63%)
  
  
  ***************************
  Time-Step Critical Elements
  ***************************
  Link W000001846 (21.38%)
  Link W000001822 (13.04%)
  Link W000001771 (11.99%)
  Link W999999999H (7.27%)
  Link W000014057 (6.49%)
  
  
  ********************************
  Highest Flow Instability Indexes
  ********************************
  Link W000002028 (18)
  Link W000002027 (15)
  Link W000002026 (6)
  Link W000008456 (2)
  Link W000001771 (2)
  
  
  *************************
  Routing Time Step Summary
  *************************
  Minimum Time Step           :     0.50 sec
  Average Time Step           :    12.78 sec
  Maximum Time Step           :    30.00 sec
  Percent in Steady State     :     0.00
  Average Iterations per Step :     2.55
  Percent Not Converging      :    13.28
  
  
  ******************
  Node Depth Summary
  ******************
  
  ---------------------------------------------------------------------------------
                                 Average  Maximum  Maximum  Time of Max    Reported
                                   Depth    Depth      HGL   Occurrence   Max Depth
  Node                 Type       Meters   Meters   Meters  days hr:min      Meters
  ---------------------------------------------------------------------------------
  DE01                 JUNCTION     0.00     0.00    55.66     0  13:35        0.00
  DE03                 JUNCTION     0.00     0.00    59.50     0  13:35        0.00
  DE04                 JUNCTION     0.00     0.00    61.83     0  13:35        0.00
  DE07                 JUNCTION     0.00     0.00    46.46     0  12:25        0.00
  DE08                 JUNCTION     0.04     0.04    46.13     0  13:35        0.04
  DE_LINE_A            JUNCTION     0.00     0.00    54.87     0  13:35        0.00
  DE_LINE_AA           JUNCTION     0.00     0.00    57.27     0  13:35        0.00
  DE_LINE_AC           JUNCTION     0.00     0.00    72.29     0  13:35        0.00
  DE_LINE_AE           JUNCTION     0.00     0.00    57.82     0  13:35        0.00
  DE_LINE_AH           JUNCTION     0.00     0.00    58.55     0  13:35        0.00
  DE_LINE_AI           JUNCTION     0.00     0.01    51.02     0  13:35        0.01
  DE_LINE_AJ           JUNCTION     0.00     0.00    61.34     0  13:35        0.00
  DE_LINE_AM           JUNCTION     0.00     0.00    46.12     0  13:35        0.00
  DE_LINE_AS           JUNCTION     0.00     0.00    42.80     0  13:35        0.00
  DE_LINE_AT           JUNCTION     0.00     0.00    45.35     0  13:35        0.00
  DE_LINE_BA           JUNCTION     0.00     0.00    70.60     0  13:35        0.00
  DE_LINE_BD           JUNCTION     0.00     0.00    56.01     0  13:35        0.00
  DE_LINE_BE           JUNCTION     0.00     0.00    46.30     0  13:35        0.00
  DE_LINE_BG           JUNCTION     0.00     0.00    45.04     0  13:35        0.00
  DE_LINE_BHA          JUNCTION     0.00     0.00    64.78     0  13:35        0.00
  DE_LINE_BJA          JUNCTION     0.00     0.00    53.98     0  13:35        0.00
  DE_LINE_BJB          JUNCTION     0.00     0.00    53.98     0  13:35        0.00
  DE_LINE_BK           JUNCTION     0.00     0.00    48.67     0  13:35        0.00
  DE_LINE_BM           JUNCTION     0.00     0.00    42.42     0  13:35        0.00
  DE_LINE_BO           JUNCTION     0.00     0.00    42.79     0  13:35        0.00
  DE_LINE_BP           JUNCTION     0.00     0.01    42.55     0  13:40        0.01
  DE_LINE_BQ           JUNCTION     0.00     0.00    42.69     0  13:35        0.00
  DE_LINE_CA           JUNCTION     0.00     0.00    47.14     0  13:40        0.00
  DE_LINE_CB           JUNCTION     0.00     0.00    44.66     0  13:35        0.00
  DE_LINE_CD           JUNCTION     0.00     0.00    45.41     0  13:35        0.00
  DE_LINE_CDB          JUNCTION     0.00     0.00    46.80     0  13:35        0.00
  DE_LINE_CE           JUNCTION     0.00     0.00    43.47     0  13:35        0.00
  DE_LINE_CF           JUNCTION     0.00     0.00    46.02     0  13:35        0.00
  DE_LINE_DA           JUNCTION     0.00     0.00    63.20     0  13:35        0.00
  DE_LINE_DB           JUNCTION     0.00     0.00    69.62     0  13:35        0.00
  DE_LINE_DC           JUNCTION     0.00     0.00    57.67     0  13:35        0.00
  DE_LINE_DD           JUNCTION     0.00     0.00    60.33     0  13:35        0.00
  DE_LINE_DE           JUNCTION     0.00     0.00    68.24     0  13:35        0.00
  DE_LINE_DF           JUNCTION     0.00     0.00    64.16     0  13:35        0.00
  DE_LINE_DG           JUNCTION     0.00     0.00    65.58     0  13:35        0.00
  DE_LINE_DH           JUNCTION     0.00     0.00    59.74     0  13:35        0.00
  DE_LINE_DJ           JUNCTION     0.00     0.00    69.59     0  13:35        0.00
  DE_LINE_DK           JUNCTION     0.00     0.00    75.08     0  13:35        0.00
  DE_LINE_DL           JUNCTION     0.00     0.00    57.95     0  13:35        0.00
  DE_LINE_DM           JUNCTION     0.21     0.22    71.56     0  19:00        0.22
  DE_LINE_DN           JUNCTION     0.00     0.00    70.50     0  13:35        0.00
  DE_LINE_DNB          JUNCTION     0.00     0.00    74.30     0  13:35        0.00
  DE_LINE_DO           JUNCTION     0.00     0.00    83.36     0  13:35        0.00
  DE_LINE_DP           JUNCTION     0.00     0.00    79.30     0  13:35        0.00
  DE_LINE_DQ           JUNCTION     0.00     0.00    55.75     0  13:35        0.00
  DE_LINE_EAA          JUNCTION     0.00     0.00    54.30     0  13:35        0.00
  DE_LINE_EAAB         JUNCTION     0.00     0.00    53.76     0  13:35        0.00
  DE_LINE_EB           JUNCTION     0.00     0.00    50.40     0  13:35        0.00
  DE_LINE_EC           JUNCTION     0.00     0.00    52.06     0  13:35        0.00
  DE_LINE_ED           JUNCTION     0.00     0.00    54.34     0  13:35        0.00
  DE_LINE_EF           JUNCTION     0.00     0.00    59.50     0  13:35        0.00
  DE_LINE_EG           JUNCTION     0.00     0.00    57.50     0  13:35        0.00
  DE_LINE_EH           JUNCTION     0.00     0.00    56.34     0  13:35        0.00
  DE_LINE_EIA          JUNCTION     0.00     0.00    49.90     0  13:35        0.00
  DE_LINE_EIB          JUNCTION     0.04     0.05    44.86     0  13:40        0.05
  DE_LINE_ENA          JUNCTION     0.00     0.00    60.14     0  13:35        0.00
  DE_LINE_ENB          JUNCTION     0.00     0.00    46.68     0  13:35        0.00
  DE_LINE_ENC          JUNCTION     0.00     0.00    57.10     0  13:35        0.00
  DE_LINE_H            JUNCTION     0.00     0.00    48.93     0  13:35        0.00
  DE_LINE_HA           JUNCTION     0.00     0.00    57.94     0  13:35        0.00
  DE_LINE_HB           JUNCTION     0.00     0.00    63.85     0  13:35        0.00
  DE_LINE_HC           JUNCTION     0.00     0.00    63.39     0  13:35        0.00
  DE_LINE_HD           JUNCTION     0.00     0.00    61.69     0  13:35        0.00
  DE_LINE_HE           JUNCTION     0.00     0.01    54.08     0  13:35        0.01
  DE_LINE_HF           JUNCTION     0.00     0.00    52.47     0  13:35        0.00
  DE_LINE_HG           JUNCTION     0.00     0.00    51.78     0  13:35        0.00
  DE_LINE_HGB          JUNCTION     0.00     0.00    52.25     0  13:35        0.00
  DE_LINE_K            JUNCTION     0.00     0.00    55.53     0  13:35        0.00
  DE_LINE_L            JUNCTION     0.00     0.00    56.46     0  13:35        0.00
  DE_LINE_M            JUNCTION     0.00     0.00    51.06     0  13:35        0.00
  DE_LINE_P            JUNCTION     0.00     0.00    42.83     0  13:35        0.00
  DE_LINE_R            JUNCTION     0.00     0.00    43.80     0  13:35        0.00
  DE_LINE_S            JUNCTION     0.00     0.00    77.00     0  13:35        0.00
  DE_LINE_SB           JUNCTION     0.00     0.00    73.00     0  13:35        0.00
  DE_LINE_T            JUNCTION     0.00     0.00    65.13     0  13:35        0.00
  DE_LINE_T7A          JUNCTION     0.00     0.00    58.85     0  13:35        0.00
  DE_LINE_TA           JUNCTION     0.00     0.00    46.65     0  13:40        0.00
  DE_LINE_W            JUNCTION     0.00     0.00    79.96     0  13:35        0.00
  DE_LINE_X            JUNCTION     0.00     0.00    47.65     0  13:35        0.00
  DE_LINE_Y            JUNCTION     0.00     0.00    54.60     0  13:35        0.00
  H_PIONT_SPS1006      JUNCTION     0.01     0.04    61.94     0  13:52        0.04
  H_POINT_SPS1001      JUNCTION     0.01     0.15    64.00     0  00:00        0.04
  H_POINT_SPS1002      JUNCTION     0.03     1.68    50.58     1  09:05        1.30
  H_POINT_SPS1003      JUNCTION     0.05     0.12    49.92     0  14:16        0.11
  JCT-196              JUNCTION     1.68     9.96    54.31     1  05:28        8.61
  JCT-198              JUNCTION     6.88    12.43    64.61     0  21:45       12.01
  JCT-200              JUNCTION     8.18    25.18    70.90     1  21:26       24.43
  JCT-202              JUNCTION     2.88    37.16    79.68     0  13:33       27.42
  JCT-204              JUNCTION     4.66    15.79    59.69     0  23:43       14.28
  JCT-206              JUNCTION     2.13    22.22    62.53     0  20:41       19.66
  JCT-208              JUNCTION     1.20    58.26   101.64     0  16:01       22.78
  JCT-210              JUNCTION     0.64     2.49    56.46     0  22:17        1.32
  STP                  JUNCTION     0.03     0.07    44.57     0  15:07        0.07
  W000002493           JUNCTION     0.22     0.25    40.25     0  13:51        0.25
  W000002494           JUNCTION     0.01     0.03    40.46     0  13:50        0.03
  W000002495           JUNCTION     0.01     0.02    40.77     0  13:49        0.02
  W000002496           JUNCTION     0.01     0.02    41.00     0  13:48        0.02
  W000002497           JUNCTION     0.01     0.02    41.33     0  13:46        0.02
  W000002498           JUNCTION     0.01     0.02    41.67     0  13:45        0.02
  W000002499           JUNCTION     0.01     0.02    42.17     0  13:43        0.02
  W000002500           JUNCTION     0.01     0.01    42.44     0  13:40        0.01
  W000002501           JUNCTION     0.00     0.01    45.86     0  13:40        0.01
  W000002502           JUNCTION     0.01     0.01    43.09     0  13:40        0.01
  W000002503           JUNCTION     0.00     0.00    50.54     0  13:40        0.00
  W000002504           JUNCTION     0.00     0.00    52.75     0  13:35        0.00
  W000002505           JUNCTION     0.00     0.00    42.02     0  13:35        0.00
  W000002506           JUNCTION     0.00     0.00    44.66     0  13:35        0.00
  W000002507           JUNCTION     0.02     0.04    40.05     0  13:50        0.04
  W000002508           JUNCTION     0.02     0.03    41.55     0  13:50        0.03
  W000002509           JUNCTION     0.02     0.03    41.98     0  13:49        0.03
  W000002510           JUNCTION     0.01     0.02    42.50     0  13:49        0.02
  W000002511           JUNCTION     0.01     0.01    42.96     0  13:48        0.01
  W000002512           JUNCTION     0.01     0.01    43.66     0  13:45        0.01
  W000002513           JUNCTION     0.01     0.01    43.83     0  13:45        0.01
  W000002514           JUNCTION     0.01     0.01    44.21     0  13:45        0.01
  W000002515           JUNCTION     0.01     0.01    44.47     0  13:45        0.01
  W000002516           JUNCTION     0.00     0.01    46.27     0  13:44        0.01
  W000002517           JUNCTION     0.00     0.01    48.99     0  13:40        0.01
  W000002518           JUNCTION     2.71     4.37    49.44     2  03:45        4.37
  W000002519           JUNCTION     0.42     0.48    51.55     0  20:30        0.48
  W000002520           JUNCTION     0.30     0.33    52.73     0  19:10        0.33
  W000002521           JUNCTION     0.00     0.01    41.45     0  13:43        0.01
  W000002522           JUNCTION     0.01     0.01    41.78     0  13:43        0.01
  W000002523           JUNCTION     0.00     0.01    42.75     0  13:41        0.01
  W000002524           JUNCTION     0.00     0.01    43.85     0  13:40        0.01
  W000002525           JUNCTION     0.00     0.01    45.36     0  13:40        0.01
  W000002526           JUNCTION     0.00     0.00    46.46     0  13:35        0.00
  W000002527           JUNCTION     0.00     0.00    44.89     0  13:35        0.00
  W000002528           JUNCTION     0.01     0.02    42.74     0  13:47        0.02
  W000002529           JUNCTION     0.01     0.03    43.51     0  13:47        0.03
  W000002530           JUNCTION     0.00     0.01    43.93     0  13:43        0.01
  W000002531           JUNCTION     0.00     0.01    46.50     0  13:41        0.01
  W000002532           JUNCTION     0.00     0.00    48.55     0  13:40        0.00
  W000002533           JUNCTION     0.00     0.01    48.73     0  13:40        0.01
  W000002534           JUNCTION     0.00     0.01    43.55     0  13:40        0.01
  W000002535           JUNCTION     0.00     0.00    44.30     0  13:40        0.00
  W000002536           JUNCTION     0.01     0.01    49.22     0  13:40        0.01
  W000002537           JUNCTION     0.00     0.01    49.52     0  13:40        0.01
  W000002538           JUNCTION     0.00     0.00    52.25     0  13:39        0.00
  W000002539           JUNCTION     0.00     0.00    53.83     0  13:36        0.00
  W000002540           JUNCTION     0.01     0.01    43.02     0  13:43        0.01
  W000002541           JUNCTION     0.01     0.02    43.47     0  13:42        0.02
  W000002542           JUNCTION     0.01     0.02    43.94     0  13:40        0.02
  W000002543           JUNCTION     0.01     0.01    45.14     0  13:40        0.01
  W000002544           JUNCTION     0.00     0.01    48.52     0  13:40        0.01
  W000002545           JUNCTION     0.00     0.01    50.00     0  13:39        0.01
  W000002546           JUNCTION     0.00     0.01    50.40     0  13:36        0.01
  W000002547           JUNCTION     0.00     0.01    52.48     0  13:35        0.01
  W000002548           JUNCTION     0.00     0.00    54.53     0  13:35        0.00
  W000002549           JUNCTION     0.00     0.01    46.55     0  13:40        0.01
  W000002550           JUNCTION     0.00     0.00    48.78     0  13:35        0.00
  W000002551           JUNCTION     0.00     0.00    51.06     0  13:35        0.00
  W000002552           JUNCTION     0.00     0.01    42.64     0  13:35        0.01
  W000002554           JUNCTION     0.02     0.03    41.33     0  15:02        0.03
  W000002555           JUNCTION     0.01     0.01    43.25     0  13:42        0.01
  W000002556           JUNCTION     0.00     0.01    47.31     0  13:40        0.01
  W000002557           JUNCTION     0.00     0.01    52.05     0  13:40        0.01
  W000002558           JUNCTION     0.00     0.01    58.17     0  13:40        0.01
  W000002559           JUNCTION     0.00     0.01    63.09     0  13:40        0.01
  W000002560           JUNCTION     0.00     0.01    64.31     0  13:40        0.01
  W000002561           JUNCTION     0.00     0.00    65.00     0  13:40        0.00
  W000002562           JUNCTION     0.01     0.02    41.69     0  13:43        0.02
  W000002563           JUNCTION     0.01     0.02    42.25     0  13:42        0.02
  W000002564           JUNCTION     0.01     0.02    42.89     0  13:42        0.02
  W000002565           JUNCTION     0.01     0.02    43.47     0  13:40        0.02
  W000002566           JUNCTION     0.01     0.01    44.68     0  13:40        0.01
  W000002567           JUNCTION     0.01     0.01    45.04     0  13:40        0.01
  W000002568           JUNCTION     0.00     0.01    48.95     0  13:40        0.01
  W000002569           JUNCTION     0.00     0.01    49.36     0  13:39        0.01
  W000002570           JUNCTION     0.00     0.01    52.61     0  12:34        0.01
  W000002571           JUNCTION     0.00     0.01    53.12     0  12:52        0.01
  W000002572           JUNCTION     0.00     0.00    57.98     0  13:35        0.00
  W000002573           JUNCTION     0.00     0.00    64.10     0  13:35        0.00
  W000002574           JUNCTION     0.00     0.00    68.07     0  13:35        0.00
  W000002575           JUNCTION     0.00     0.00    52.03     0  13:36        0.00
  W000002576           JUNCTION     0.00     0.00    46.06     0  13:35        0.00
  W000002577           JUNCTION     0.00     0.00    45.58     0  13:35        0.00
  W000002578           JUNCTION     0.00     0.00    47.20     0  13:35        0.00
  W000002579           JUNCTION     0.00     0.00    44.78     0  13:35        0.00
  W000002580           JUNCTION     0.01     0.01    43.95     0  13:40        0.01
  W000002581           JUNCTION     0.01     0.01    46.94     0  13:40        0.01
  W000002582           JUNCTION     0.00     0.01    50.58     0  13:40        0.01
  W000002583           JUNCTION     0.00     0.01    51.62     0  13:39        0.01
  W000002584           JUNCTION     0.00     0.01    51.88     0  13:38        0.01
  W000002585           JUNCTION     0.00     0.01    54.44     0  13:36        0.01
  W000002586           JUNCTION     0.00     0.00    57.69     0  13:35        0.00
  W000002587           JUNCTION     0.00     0.00    60.71     0  13:35        0.00
  W000002588           JUNCTION     0.00     0.00    63.45     0  13:40        0.00
  W000002590           JUNCTION     0.00     0.00    47.88     0  13:35        0.00
  W000002591           JUNCTION     0.00     0.00    51.44     0  13:35        0.00
  W000002592           JUNCTION     0.00     0.01    47.40     0  13:35        0.01
  W000002593           JUNCTION     0.00     0.00    57.15     0  13:35        0.00
  W000002594           JUNCTION     0.04     0.15    41.33     2  10:16        0.15
  W000002595           JUNCTION     0.00     0.01    41.61     0  13:40        0.01
  W000002596           JUNCTION     0.00     0.01    42.07     0  13:40        0.01
  W000002597           JUNCTION     0.00     0.01    42.06     0  13:40        0.01
  W000002598           JUNCTION     0.00     0.01    42.46     0  13:40        0.01
  W000002599           JUNCTION     0.02     0.06    54.77     0  13:41        0.06
  W000002600           JUNCTION     0.02     0.06    55.35     0  13:41        0.06
  W000002601           JUNCTION     0.01     0.06    56.12     0  13:40        0.06
  W000002602           JUNCTION     0.01     0.07    56.21     0  13:54        0.07
  W000002603           JUNCTION     0.01     0.04    58.44     0  19:30        0.04
  W000002604           JUNCTION     0.01     0.06    58.83     0  21:46        0.06
  W000002605           JUNCTION     0.00     0.00    68.92     0  12:52        0.00
  W000002606           JUNCTION     0.01     0.01    56.70     0  13:42        0.01
  W000002607           JUNCTION     0.01     0.01    57.25     0  13:42        0.01
  W000002608           JUNCTION     0.01     0.01    57.76     0  13:41        0.01
  W000002609           JUNCTION     0.01     0.01    58.72     0  13:40        0.01
  W000002610           JUNCTION     0.01     0.01    59.09     0  13:40        0.01
  W000002611           JUNCTION     0.00     0.01    59.80     0  13:40        0.01
  W000002612           JUNCTION     0.00     0.01    60.25     0  13:40        0.01
  W000002613           JUNCTION     0.00     0.01    60.69     0  13:40        0.01
  W000002614           JUNCTION     0.00     0.01    61.39     0  13:40        0.01
  W000002615           JUNCTION     0.00     0.01    61.81     0  13:39        0.01
  W000002616           JUNCTION     0.00     0.00    65.90     0  13:35        0.00
  W000002617           JUNCTION     0.00     0.00    64.15     0  13:35        0.00
  W000002618           JUNCTION     0.00     0.00    66.56     0  13:35        0.00
  W000002619           JUNCTION     0.00     0.01    50.90     0  13:40        0.01
  W000002620           JUNCTION     0.01     0.01    55.53     0  13:41        0.01
  W000002621           JUNCTION     0.04     0.88    40.52     0  00:02        0.40
  W000002622           JUNCTION     0.02     0.07    40.11     0  00:03        0.06
  W000002623           JUNCTION     0.03     0.09    40.44     0  14:06        0.08
  W000002624           JUNCTION     0.03     0.10    40.83     0  14:06        0.09
  W000002625           JUNCTION     0.02     0.06    41.12     0  13:47        0.05
  W000002626           JUNCTION     0.02     0.05    42.14     0  13:47        0.05
  W000002627           JUNCTION     0.01     0.03    47.08     0  13:46        0.03
  W000002628           JUNCTION     0.01     0.03    49.08     0  13:46        0.03
  W000002629           JUNCTION     0.02     0.06    49.25     0  13:45        0.06
  W000002630           JUNCTION     0.01     0.04    52.76     0  13:45        0.04
  W000002631           JUNCTION     0.02     0.05    53.09     0  13:44        0.05
  W000002632           JUNCTION     0.02     0.06    53.78     0  13:43        0.06
  W000002633           JUNCTION     0.02     0.06    54.21     0  13:42        0.06
  W000002634           JUNCTION     0.00     0.01    57.00     0  13:44        0.01
  W000002635           JUNCTION     0.01     0.01    59.68     0  13:43        0.01
  W000002636           JUNCTION     0.01     0.01    62.67     0  13:41        0.01
  W000002637           JUNCTION     0.01     0.01    63.71     0  13:41        0.01
  W000002639           JUNCTION     0.00     0.01    67.82     0  13:40        0.01
  W000002640           JUNCTION     0.00     0.01    72.62     0  13:40        0.01
  W000002641           JUNCTION     0.01     0.01    72.92     0  13:40        0.01
  W000002642           JUNCTION     0.00     0.01    73.76     0  13:38        0.01
  W000002643           JUNCTION     0.00     0.00    76.08     0  13:35        0.00
  W000002644           JUNCTION     0.01     0.10    41.33     0  00:01        0.07
  W000002645           JUNCTION     0.01     0.13    41.69     0  00:01        0.08
  W000002646           JUNCTION     0.01     0.14    42.06     0  00:00        0.07
  W000002647           JUNCTION     0.01     0.27    42.38     0  00:00        0.09
  W000002648           JUNCTION     0.01     0.01    41.20     0  13:42        0.01
  W000002649           JUNCTION     0.01     0.01    42.62     0  13:41        0.01
  W000002650           JUNCTION     0.01     0.01    44.24     0  13:40        0.01
  W000002651           JUNCTION     0.01     0.01    46.10     0  13:40        0.01
  W000002652           JUNCTION     0.00     0.01    49.94     0  13:40        0.01
  W000002653           JUNCTION     0.01     0.01    51.10     0  13:40        0.01
  W000002654           JUNCTION     0.00     0.01    53.88     0  13:40        0.01
  W000002655           JUNCTION     0.00     0.01    54.96     0  13:40        0.01
  W000002656           JUNCTION     0.00     0.00    56.78     0  13:35        0.00
  W000002657           JUNCTION     0.00     0.01    58.16     0  13:40        0.01
  W000002658           JUNCTION     0.00     0.00    62.13     0  13:40        0.00
  W000002659           JUNCTION     0.00     0.00    64.27     0  13:40        0.00
  W000002660           JUNCTION     0.00     0.00    46.04     0  13:40        0.00
  W000002661           JUNCTION     0.00     0.00    75.09     0  13:40        0.00
  W000002662           JUNCTION     0.00     0.00    47.26     0  13:35        0.00
  W000002663           JUNCTION     0.00     0.00    54.49     0  13:35        0.00
  W000002664           JUNCTION     0.06     0.50    39.99     0  00:04        0.50
  W000002665           JUNCTION     0.01     1.22    42.54     0  00:01        0.06
  W000002666           JUNCTION     0.02     0.22    42.69     0  00:01        0.07
  W000002667           JUNCTION     0.01     0.20    43.34     0  00:01        0.06
  W000002668           JUNCTION     0.02     0.97    44.27     0  00:00        0.10
  W000002669           JUNCTION     0.01     1.23    48.42     0  00:00        0.05
  W000002670           JUNCTION     0.01     0.51    49.57     0  00:00        0.04
  W000002671           JUNCTION     0.01     0.06    54.44     0  00:01        0.04
  W000002672           JUNCTION     0.01     0.09    55.78     0  00:01        0.05
  W000002673           JUNCTION     0.01     0.08    42.34     0  14:03        0.08
  W000002674           JUNCTION     0.01     0.02    43.03     0  12:53        0.01
  W000002675           JUNCTION     0.01     0.01    47.01     0  12:52        0.01
  W000002676           JUNCTION     0.00     0.01    50.35     0  13:41        0.01
  W000002677           JUNCTION     0.00     0.01    59.66     0  13:40        0.01
  W000002678           JUNCTION     0.00     0.01    63.19     0  13:40        0.01
  W000002679           JUNCTION     0.00     0.01    65.03     0  13:40        0.01
  W000002680           JUNCTION     0.00     0.01    67.17     0  13:40        0.01
  W000002681           JUNCTION     0.00     0.01    69.52     0  12:54        0.01
  W000002682           JUNCTION     0.00     0.00    79.11     0  13:37        0.00
  W000002683           JUNCTION     0.00     0.00    51.36     0  13:37        0.00
  W000002684           JUNCTION     0.00     0.00    52.44     0  13:36        0.00
  W000002685           JUNCTION     0.00     0.01    43.15     0  13:40        0.01
  W000002686           JUNCTION     0.01     0.01    44.08     0  13:40        0.01
  W000002687           JUNCTION     0.01     0.01    44.71     0  13:40        0.01
  W000002688           JUNCTION     0.00     0.01    44.87     0  13:40        0.01
  W000002689           JUNCTION     0.00     0.01    45.32     0  13:40        0.01
  W000002690           JUNCTION     0.00     0.01    45.62     0  13:40        0.01
  W000002691           JUNCTION     0.00     0.00    46.55     0  13:40        0.00
  W000002692           JUNCTION     0.00     0.00    44.46     0  13:35        0.00
  W000002693           JUNCTION     0.00     0.01    44.94     0  13:40        0.01
  W000002694           JUNCTION     0.00     0.01    45.33     0  13:38        0.01
  W000002696           JUNCTION     0.01     0.01    46.93     0  13:44        0.01
  W000002697           JUNCTION     0.01     0.02    47.49     0  13:43        0.02
  W000002698           JUNCTION     0.00     0.01    54.51     0  13:42        0.01
  W000002699           JUNCTION     0.01     0.01    55.16     0  13:42        0.01
  W000002700           JUNCTION     0.01     0.01    55.81     0  13:40        0.01
  W000002701           JUNCTION     0.01     0.01    56.26     0  13:40        0.01
  W000002702           JUNCTION     0.00     0.01    56.48     0  13:40        0.01
  W000002703           JUNCTION     0.00     0.00    59.73     0  13:40        0.00
  W000002704           JUNCTION     0.00     0.00    60.75     0  13:40        0.00
  W000002705           JUNCTION     0.00     0.00    64.04     0  13:40        0.00
  W000002706           JUNCTION     0.01     0.01    44.99     0  13:41        0.01
  W000002707           JUNCTION     0.00     0.01    45.81     0  13:40        0.01
  W000002708           JUNCTION     0.00     0.01    46.43     0  13:40        0.01
  W000002709           JUNCTION     0.00     0.00    48.82     0  13:40        0.00
  W000002710           JUNCTION     0.00     0.01    49.77     0  13:40        0.01
  W000002711           JUNCTION     0.00     0.01    47.65     0  13:40        0.01
  W000002712           JUNCTION     0.00     0.01    48.25     0  13:40        0.01
  W000002713           JUNCTION     0.00     0.01    51.17     0  13:40        0.01
  W000002714           JUNCTION     0.00     0.01    51.59     0  13:39        0.01
  W000002715           JUNCTION     0.00     0.01    52.02     0  13:35        0.01
  W000002716           JUNCTION     0.00     0.00    53.87     0  13:35        0.00
  W000002717           JUNCTION     0.00     0.00    59.00     0  13:35        0.00
  W000002719           JUNCTION     0.01     0.02    49.95     0  13:45        0.02
  W000002720           JUNCTION     0.02     0.03    50.24     0  13:45        0.03
  W000002721           JUNCTION     0.02     0.03    50.58     0  13:44        0.03
  W000002722           JUNCTION     0.01     0.03    50.87     0  13:45        0.03
  W000002723           JUNCTION     0.01     0.03    51.01     0  13:44        0.03
  W000002724           JUNCTION     0.01     0.02    51.37     0  13:43        0.02
  W000002725           JUNCTION     0.01     0.03    51.75     0  13:42        0.03
  W000002726           JUNCTION     0.01     0.01    52.19     0  13:45        0.01
  W000002727           JUNCTION     0.01     0.01    52.74     0  13:42        0.01
  W000002728           JUNCTION     0.01     0.01    53.33     0  13:40        0.01
  W000002729           JUNCTION     0.00     0.01    55.25     0  13:40        0.01
  W000002730           JUNCTION     0.00     0.01    55.68     0  13:38        0.01
  W000002731           JUNCTION     0.00     0.00    59.45     0  13:36        0.00
  W000002732           JUNCTION     0.00     0.00    62.86     0  13:35        0.00
  W000002733           JUNCTION     0.00     0.01    54.64     0  13:37        0.01
  W000002734           JUNCTION     0.01     0.01    55.93     0  13:37        0.01
  W000002735           JUNCTION     0.00     0.01    57.85     0  13:36        0.01
  W000002736           JUNCTION     0.00     0.01    59.78     0  12:53        0.01
  W000002737           JUNCTION     0.00     0.01    62.45     0  13:35        0.01
  W000002738           JUNCTION     0.00     0.00    64.29     0  13:35        0.00
  W000002739           JUNCTION     0.00     0.00    66.87     0  13:35        0.00
  W000002740           JUNCTION     0.00     0.00    68.25     0  13:35        0.00
  W000002741           JUNCTION     0.00     0.00    69.34     0  13:35        0.00
  W000002742           JUNCTION     0.01     0.01    58.13     0  13:37        0.01
  W000002743           JUNCTION     0.00     0.01    58.46     0  13:35        0.01
  W000002744           JUNCTION     0.00     0.00    60.20     0  13:35        0.00
  W000002745           JUNCTION     0.00     0.00    63.55     0  13:36        0.00
  W000002746           JUNCTION     0.00     0.00    64.44     0  13:35        0.00
  W000002748           JUNCTION     0.00     0.01    54.77     0  13:40        0.01
  W000002749           JUNCTION     0.01     0.01    55.17     0  13:40        0.01
  W000002750           JUNCTION     0.01     0.01    57.51     0  13:40        0.01
  W000002751           JUNCTION     0.01     0.01    57.73     0  13:36        0.01
  W000002752           JUNCTION     0.00     0.00    61.98     0  13:35        0.00
  W000002753           JUNCTION     0.00     0.00    63.39     0  13:35        0.00
  W000002754           JUNCTION     0.00     0.01    56.47     0  13:40        0.01
  W000002755           JUNCTION     0.00     0.01    57.95     0  13:36        0.01
  W000002756           JUNCTION     0.00     0.00    62.60     0  13:35        0.00
  W000002757           JUNCTION     0.00     0.00    65.15     0  13:35        0.00
  W000002758           JUNCTION     0.00     0.00    65.83     0  13:35        0.00
  W000002759           JUNCTION     0.01     0.01    56.44     0  13:40        0.01
  W000002760           JUNCTION     0.01     0.01    57.45     0  13:40        0.01
  W000002761           JUNCTION     0.01     0.02    57.89     0  13:40        0.02
  W000002762           JUNCTION     0.01     0.02    60.33     0  12:30        0.02
  W000002763           JUNCTION     0.00     0.01    61.89     0  13:37        0.01
  W000002764           JUNCTION     0.00     0.01    63.75     0  13:36        0.01
  W000002765           JUNCTION     0.00     0.01    67.65     0  12:30        0.01
  W000002766           JUNCTION     0.00     0.00    71.05     0  13:35        0.00
  W000002767           JUNCTION     0.00     0.01    62.58     0  13:35        0.01
  W000002768           JUNCTION     0.01     0.01    62.98     0  19:10        0.01
  W000002769           JUNCTION     0.00     0.00    68.20     2  14:26        0.00
  W000002770           JUNCTION     0.00     0.01    70.70     3  11:04        0.01
  W000002771           JUNCTION     0.00     0.00    71.35     1  08:48        0.00
  W000002772           JUNCTION     0.21     0.23    71.47     2  05:33        0.23
  W000002773           JUNCTION     0.00     0.00    68.79     0  13:35        0.00
  W000002774           JUNCTION     0.00     0.01    64.97     0  13:39        0.01
  W000002775           JUNCTION     0.00     0.01    68.46     0  13:38        0.01
  W000002776           JUNCTION     0.00     0.01    70.09     0  12:29        0.01
  W000002777           JUNCTION     0.00     0.00    75.02     0  13:37        0.00
  W000002778           JUNCTION     0.00     0.01    76.98     0  13:36        0.00
  W000002779           JUNCTION     0.00     0.01    77.19     0  13:35        0.01
  W000002780           JUNCTION     0.00     0.00    75.56     0  13:35        0.00
  W000002782           JUNCTION     0.00     0.01    44.13     0  13:40        0.01
  W000002783           JUNCTION     0.00     0.00    49.13     0  13:36        0.00
  W000002784           JUNCTION     0.00     0.00    49.90     0  13:35        0.00
  W000002785           JUNCTION     0.00     0.00    50.30     0  13:35        0.00
  W000002786           JUNCTION     0.00     0.01    44.82     0  13:40        0.01
  W000002787           JUNCTION     0.00     0.01    46.36     0  13:40        0.01
  W000002788           JUNCTION     0.00     0.01    46.65     0  13:37        0.01
  W000002789           JUNCTION     0.00     0.00    47.61     0  13:35        0.00
  W000002791           JUNCTION     0.02     0.05    40.88     0  14:04        0.05
  W000002792           JUNCTION     0.03     0.08    40.92     0  14:04        0.08
  W000002793           JUNCTION     0.02     0.05    41.13     0  14:02        0.05
  W000002794           JUNCTION     0.01     0.06    41.28     0  14:01        0.06
  W000002795           JUNCTION     0.01     0.07    41.57     0  14:00        0.07
  W000002796           JUNCTION     0.01     0.08    41.75     0  13:59        0.07
  W000002797           JUNCTION     0.01     0.05    42.66     0  13:58        0.05
  W000002798           JUNCTION     0.01     0.05    44.21     0  13:57        0.05
  W000002799           JUNCTION     0.01     0.04    46.89     0  13:57        0.04
  W000002800           JUNCTION     0.01     0.04    50.67     0  13:56        0.04
  W000002801           JUNCTION     0.01     0.04    53.54     0  13:56        0.04
  W000002802           JUNCTION     0.01     0.05    53.72     0  23:45        0.05
  W000002803           JUNCTION     0.00     0.05    55.15     0  23:45        0.05
  W000002804           JUNCTION     0.01     0.02    41.52     0  13:50        0.02
  W000002805           JUNCTION     0.01     0.02    41.99     0  13:50        0.02
  W000002806           JUNCTION     0.00     0.00    43.50     0  13:35        0.00
  W000002807           JUNCTION     0.01     0.02    42.53     0  13:50        0.02
  W000002808           JUNCTION     0.00     0.00    43.56     0  13:35        0.00
  W000002809           JUNCTION     0.00     0.00    46.35     0  13:36        0.00
  W000002810           JUNCTION     0.00     0.00    48.29     0  13:35        0.00
  W000002811           JUNCTION     0.02     0.03    42.56     0  13:49        0.03
  W000002812           JUNCTION     0.01     0.02    42.91     0  13:49        0.02
  W000002813           JUNCTION     0.01     0.03    42.97     0  13:47        0.03
  W000002814           JUNCTION     0.01     0.02    44.16     0  13:47        0.02
  W000002815           JUNCTION     0.01     0.02    44.32     0  13:45        0.02
  W000002816           JUNCTION     0.01     0.02    45.51     0  13:42        0.02
  W000002817           JUNCTION     0.01     0.02    46.01     0  13:41        0.02
  W000002818           JUNCTION     0.01     0.02    49.10     0  13:40        0.02
  W000002819           JUNCTION     0.00     0.01    50.83     0  13:40        0.01
  W000002820           JUNCTION     0.00     0.01    46.39     0  13:35        0.01
  W000002821           JUNCTION     0.00     0.00    50.82     0  13:40        0.00
  W000002822           JUNCTION     0.00     0.00    54.12     0  13:40        0.00
  W000002824           JUNCTION     0.00     0.00    54.72     0  13:35        0.00
  W000014912           JUNCTION     0.01     0.03    43.78     0  13:45        0.03
  W000014913           JUNCTION     0.01     0.02    44.59     0  13:45        0.02
  W000014914           JUNCTION     0.01     0.02    44.78     0  13:45        0.02
  W000014915           JUNCTION     0.01     0.03    44.79     0  13:45        0.03
  W000014916           JUNCTION     0.00     0.01    47.44     0  13:45        0.01
  W000014917           JUNCTION     0.01     0.02    47.53     0  13:45        0.02
  W000014918           JUNCTION     0.01     0.01    48.24     0  13:45        0.01
  W000014919           JUNCTION     0.01     0.01    48.77     0  13:42        0.01
  W000014920           JUNCTION     0.01     0.01    49.41     0  13:40        0.01
  W000014921           JUNCTION     0.00     0.01    51.21     0  13:40        0.01
  W000014922           JUNCTION     0.00     0.00    55.72     0  13:39        0.00
  W000014923           JUNCTION     0.00     0.01    56.53     0  13:38        0.01
  W000014924           JUNCTION     0.01     0.01    48.68     0  13:43        0.01
  W000014925           JUNCTION     0.01     0.01    49.37     0  13:41        0.01
  W000014926           JUNCTION     0.00     0.01    49.99     0  13:40        0.01
  W000014927           JUNCTION     0.00     0.00    57.47     0  13:40        0.00
  W000014928           JUNCTION     0.00     0.01    59.21     0  13:40        0.01
  W000014929           JUNCTION     0.00     0.00    63.22     0  13:36        0.00
  W000014930           JUNCTION     0.00     0.01    49.37     0  13:40        0.01
  W000014931           JUNCTION     0.00     0.01    54.83     0  13:40        0.01
  W000014932           JUNCTION     0.00     0.01    55.30     0  13:40        0.01
  W000014933           JUNCTION     0.00     0.01    60.25     0  13:40        0.01
  W000014934           JUNCTION     0.00     0.01    60.59     0  13:38        0.01
  W000014935           JUNCTION     0.00     0.01    56.41     0  13:40        0.01
  W000014936           JUNCTION     0.00     0.01    57.21     0  13:40        0.01
  W000014937           JUNCTION     0.00     0.00    60.45     0  13:35        0.00
  W000014938           JUNCTION     0.00     0.00    61.40     0  13:35        0.00
  W000014939           JUNCTION     0.00     0.00    53.97     0  13:40        0.00
  W000014940           JUNCTION     0.00     0.01    49.95     0  13:40        0.01
  W000014941           JUNCTION     0.00     0.00    51.84     0  13:35        0.00
  W000014942           JUNCTION     0.01     0.01    49.32     0  13:43        0.01
  W000014943           JUNCTION     0.00     0.01    49.51     0  13:40        0.01
  W000014944           JUNCTION     0.00     0.01    52.43     0  13:40        0.01
  W000014945           JUNCTION     0.00     0.01    53.21     0  13:38        0.01
  W000014946           JUNCTION     0.00     0.01    53.52     0  13:35        0.01
  W000014947           JUNCTION     0.00     0.01    45.26     0  13:40        0.01
  W000014948           JUNCTION     0.00     0.00    56.15     0  13:35        0.00
  W000014949           JUNCTION     0.01     0.02    44.87     0  13:45        0.02
  W000014950           JUNCTION     0.01     0.02    45.11     0  13:43        0.02
  W000014951           JUNCTION     0.01     0.01    48.18     0  13:41        0.01
  W000014952           JUNCTION     0.01     0.01    49.05     0  13:40        0.01
  W000014953           JUNCTION     0.00     0.01    52.02     0  13:39        0.01
  W000014954           JUNCTION     0.00     0.01    54.55     0  13:37        0.01
  W000014955           JUNCTION     0.00     0.00    55.64     0  13:35        0.00
  W000014956           JUNCTION     0.00     0.00    59.69     0  13:36        0.00
  W000014957           JUNCTION     0.00     0.01    50.25     0  13:37        0.01
  W000014958           JUNCTION     0.00     0.01    51.67     0  13:36        0.01
  W000014959           JUNCTION     0.00     0.00    53.28     0  13:35        0.00
  W000014960           JUNCTION     0.00     0.01    49.40     0  13:40        0.01
  W000014961           JUNCTION     0.00     0.00    54.48     0  13:35        0.00
  W000014962           JUNCTION     0.01     0.15    40.00     0  00:05        0.11
  W000014963           JUNCTION     0.00     0.01    40.49     0  13:45        0.01
  W000014964           JUNCTION     0.00     0.01    41.15     0  13:45        0.01
  W000014965           JUNCTION     0.00     0.01    41.67     0  13:41        0.01
  W000014966           JUNCTION     0.00     0.00    42.31     0  13:35        0.00
  W000014967           JUNCTION     0.00     0.00    42.28     0  13:40        0.00
  W000015010           JUNCTION     0.00     0.00    46.26     0  13:35        0.00
  BANGALOW_STP         OUTFALL      0.03     0.07    44.47     0  15:07        0.07
  WW_SPS1001           STORAGE      0.52     0.95    38.91     0  22:54        0.94
  WW_SPS1002           STORAGE      0.51     0.78    41.33     0  21:14        0.78
  WW_SPS1003           STORAGE      0.68     1.17    38.09     0  14:41        1.17
  WW_SPS1004           STORAGE      0.43     0.66    41.50     1  01:36        0.66
  WW_SPS1005           STORAGE      0.37     0.66    41.36     0  18:57        0.66
  WW_SPS1006           STORAGE      0.56     0.90    48.68     1  03:40        0.90
  WW_SPS1007           STORAGE      0.66     0.98    39.61     0  14:30        0.98
  
  
  *******************
  Node Inflow Summary
  *******************
  
  -------------------------------------------------------------------------------------------------
                                  Maximum  Maximum                  Lateral       Total        Flow
                                  Lateral    Total  Time of Max      Inflow      Inflow     Balance
                                   Inflow   Inflow   Occurrence      Volume      Volume       Error
  Node                 Type           LPS      LPS  days hr:min    10^6 ltr    10^6 ltr     Percent
  -------------------------------------------------------------------------------------------------
  DE01                 JUNCTION      0.03     0.03     0  13:30     0.00213     0.00213      -0.628
  DE03                 JUNCTION      0.03     0.03     0  13:30     0.00213     0.00213      -0.982
  DE04                 JUNCTION      0.03     0.03     0  13:30     0.00213     0.00213      -0.533
  DE07                 JUNCTION      0.03     0.03     0  13:30     0.00213     0.00213       0.000
  DE08                 JUNCTION      0.03     0.03     0  13:30     0.00213     0.00213       2.236
  DE_LINE_A            JUNCTION      0.03     0.03     0  13:30     0.00213     0.00213      -0.252
  DE_LINE_AA           JUNCTION      0.03     0.03     0  13:30     0.00213     0.00213      -0.275
  DE_LINE_AC           JUNCTION      0.03     0.03     0  13:30     0.00213     0.00213      -1.299
  DE_LINE_AE           JUNCTION      0.03     0.03     0  13:30     0.00213     0.00213      -0.127
  DE_LINE_AH           JUNCTION      0.03     0.03     0  13:30     0.00213     0.00213      -0.490
  DE_LINE_AI           JUNCTION      0.03     0.03     0  13:30     0.00213     0.00213      -0.005
  DE_LINE_AJ           JUNCTION      0.03     0.03     0  13:30     0.00213     0.00213      -0.203
  DE_LINE_AM           JUNCTION      0.03     0.03     0  13:30     0.00213     0.00213      -0.203
  DE_LINE_AS           JUNCTION      0.03     0.03     0  13:30     0.00213     0.00213      -0.030
  DE_LINE_AT           JUNCTION      0.03     0.03     0  13:30     0.00213     0.00213      -0.006
  DE_LINE_BA           JUNCTION      0.03     0.03     0  13:30     0.00213     0.00213      -0.170
  DE_LINE_BD           JUNCTION      0.03     0.03     0  13:30     0.00213     0.00213      -0.060
  DE_LINE_BE           JUNCTION      0.03     0.03     0  13:30     0.00213     0.00213      -0.002
  DE_LINE_BG           JUNCTION      0.03     0.03     0  13:30     0.00213     0.00213      -0.012
  DE_LINE_BHA          JUNCTION      0.03     0.03     0  13:30     0.00213     0.00213      -0.354
  DE_LINE_BJA          JUNCTION      0.03     0.03     0  13:30     0.00213     0.00213      -0.308
  DE_LINE_BJB          JUNCTION      0.03     0.03     0  13:30     0.00213     0.00213      -0.278
  DE_LINE_BK           JUNCTION      0.03     0.03     0  13:30     0.00213     0.00213      -0.346
  DE_LINE_BM           JUNCTION      0.03     0.03     0  13:30     0.00213     0.00213       0.002
  DE_LINE_BO           JUNCTION      0.03     0.03     0  13:30     0.00213     0.00213      -0.000
  DE_LINE_BP           JUNCTION      0.03     0.03     0  13:30     0.00213     0.00213       0.015
  DE_LINE_BQ           JUNCTION      0.03     0.03     0  13:30     0.00213     0.00213      -0.005
  DE_LINE_CA           JUNCTION      0.03     0.03     0  13:30     0.00213     0.00213       0.050
  DE_LINE_CB           JUNCTION      0.03     0.03     0  13:30     0.00213     0.00213       0.001
  DE_LINE_CD           JUNCTION      0.03     0.03     0  13:30     0.00213     0.00213      -0.001
  DE_LINE_CDB          JUNCTION      0.03     0.03     0  13:30     0.00213     0.00213      -0.051
  DE_LINE_CE           JUNCTION      0.03     0.03     0  13:30     0.00213     0.00213      -0.003
  DE_LINE_CF           JUNCTION      0.03     0.03     0  13:30     0.00213     0.00213      -0.008
  DE_LINE_DA           JUNCTION      0.03     0.03     0  13:30     0.00213     0.00213       0.017
  DE_LINE_DB           JUNCTION      0.03     0.03     0  13:30     0.00213     0.00213       0.011
  DE_LINE_DC           JUNCTION      0.03     0.03     0  13:30     0.00213     0.00213      -0.248
  DE_LINE_DD           JUNCTION      0.03     0.03     0  13:30     0.00213     0.00213       0.031
  DE_LINE_DE           JUNCTION      0.03     0.03     0  13:30     0.00213     0.00213      -0.102
  DE_LINE_DF           JUNCTION      0.03     0.03     0  13:30     0.00213     0.00213      -1.118
  DE_LINE_DG           JUNCTION      0.03     0.03     0  13:30     0.00213     0.00213      -0.069
  DE_LINE_DH           JUNCTION      0.03     0.03     0  13:30     0.00213     0.00213      -0.195
  DE_LINE_DJ           JUNCTION      0.03     0.03     0  13:30     0.00213     0.00213      -0.151
  DE_LINE_DK           JUNCTION      0.03     0.03     0  13:30     0.00213     0.00213      -0.292
  DE_LINE_DL           JUNCTION      0.03     0.03     0  13:30     0.00213     0.00213       0.002
  DE_LINE_DM           JUNCTION      0.03     0.03     0  13:30     0.00213     0.00213      13.712
  DE_LINE_DN           JUNCTION      0.03     0.03     0  13:30     0.00213     0.00213      -0.425
  DE_LINE_DNB          JUNCTION      0.03     0.03     0  13:30     0.00213     0.00213      -0.273
  DE_LINE_DO           JUNCTION      0.03     0.03     0  13:30     0.00213     0.00213      -0.297
  DE_LINE_DP           JUNCTION      0.03     0.03     0  13:30     0.00213     0.00213      -0.426
  DE_LINE_DQ           JUNCTION      0.03     0.03     0  13:30     0.00213     0.00213      -0.145
  DE_LINE_EAA          JUNCTION      0.03     0.03     0  13:30     0.00213     0.00213      -0.038
  DE_LINE_EAAB         JUNCTION      0.03     0.03     0  13:30     0.00213     0.00213       0.003
  DE_LINE_EB           JUNCTION      0.03     0.03     0  13:30     0.00213     0.00213      -0.004
  DE_LINE_EC           JUNCTION      0.03     0.03     0  13:30     0.00213     0.00213       0.015
  DE_LINE_ED           JUNCTION      0.03     0.03     0  13:30     0.00213     0.00213      -0.009
  DE_LINE_EF           JUNCTION      0.03     0.03     0  13:30     0.00213     0.00213      -0.132
  DE_LINE_EG           JUNCTION      0.03     0.03     0  13:30     0.00213     0.00213      -0.014
  DE_LINE_EH           JUNCTION      0.03     0.03     0  13:30     0.00213     0.00213      -0.004
  DE_LINE_EIA          JUNCTION      0.03     0.03     0  13:30     0.00213     0.00213      -0.102
  DE_LINE_EIB          JUNCTION      0.03     0.03     0  13:30     0.00213     0.00213       2.402
  DE_LINE_ENA          JUNCTION      0.03     0.03     0  13:30     0.00213     0.00213      -0.018
  DE_LINE_ENB          JUNCTION      0.03     0.03     0  13:30     0.00213     0.00213       0.003
  DE_LINE_ENC          JUNCTION      0.03     0.03     0  13:30     0.00213     0.00213      -0.239
  DE_LINE_H            JUNCTION      0.03     0.03     0  13:30     0.00213     0.00213      -0.004
  DE_LINE_HA           JUNCTION      0.03     0.03     0  13:30     0.00213     0.00213      -0.094
  DE_LINE_HB           JUNCTION      0.03     0.03     0  13:30     0.00213     0.00213      -0.084
  DE_LINE_HC           JUNCTION      0.03     0.03     0  13:30     0.00213     0.00213      -0.245
  DE_LINE_HD           JUNCTION      0.03     0.03     0  13:30     0.00213     0.00213      -0.043
  DE_LINE_HE           JUNCTION      0.03     0.03     0  13:30     0.00213     0.00213       0.053
  DE_LINE_HF           JUNCTION      0.03     0.03     0  13:30     0.00213     0.00213      -0.165
  DE_LINE_HG           JUNCTION      0.03     0.03     0  13:30     0.00213     0.00213      -0.217
  DE_LINE_HGB          JUNCTION      0.03     0.03     0  13:30     0.00213     0.00213      -0.174
  DE_LINE_K            JUNCTION      0.03     0.03     0  13:30     0.00213     0.00213      -0.225
  DE_LINE_L            JUNCTION      0.03     0.03     0  13:30     0.00213     0.00213      -0.524
  DE_LINE_M            JUNCTION      0.03     0.03     0  13:30     0.00213     0.00213      -0.852
  DE_LINE_P            JUNCTION      0.03     0.03     0  13:30     0.00213     0.00213       0.023
  DE_LINE_R            JUNCTION      0.03     0.03     0  13:30     0.00213     0.00213      -0.150
  DE_LINE_S            JUNCTION      0.03     0.03     0  13:30     0.00213     0.00213      -0.196
  DE_LINE_SB           JUNCTION      0.03     0.03     0  13:30     0.00213     0.00213      -0.006
  DE_LINE_T            JUNCTION      0.03     0.03     0  13:30     0.00213     0.00213       0.010
  DE_LINE_T7A          JUNCTION      0.03     0.03     0  13:30     0.00213     0.00213      -0.482
  DE_LINE_TA           JUNCTION      0.03     0.03     0  13:30     0.00213     0.00213       0.033
  DE_LINE_W            JUNCTION      0.03     0.03     0  13:30     0.00213     0.00213      -0.191
  DE_LINE_X            JUNCTION      0.03     0.03     0  13:30     0.00213     0.00213      -0.168
  DE_LINE_Y            JUNCTION      0.03     0.03     0  13:30     0.00213     0.00213      -0.177
  H_PIONT_SPS1006      JUNCTION      0.00     7.52     0  21:46           0       0.167      -0.055
  H_POINT_SPS1001      JUNCTION      0.00    14.05     0  13:56           0       0.217      -3.630
  H_POINT_SPS1002      JUNCTION      0.00    18.42     1  08:19           0       0.117     -15.888
  H_POINT_SPS1003      JUNCTION      0.00   178.99     0  00:05           0       0.855      -0.479
  JCT-196              JUNCTION      0.00    20.64     2  10:17           0       0.118       0.572
  JCT-198              JUNCTION      0.00    12.49     0  13:18           0       0.172       2.887
  JCT-200              JUNCTION      0.00    42.62     1  14:53           0       0.225       3.601
  JCT-202              JUNCTION      0.00   110.50     0  00:05           0       0.759     -11.211
  JCT-204              JUNCTION      0.00    14.90     0  13:32           0      0.0791       1.791
  JCT-206              JUNCTION      0.00     5.20     0  14:56           0       0.032      -0.380
  JCT-208              JUNCTION      0.03    79.02     0  19:32     0.00213       0.197      -9.951
  JCT-210              JUNCTION      0.00     8.61     0  13:33           0      0.0777       2.921
  STP                  JUNCTION      0.00    81.89     0  14:56           0        1.11       0.230
  W000002493           JUNCTION      0.03     0.92     0  13:50     0.00213      0.0766      10.313
  W000002494           JUNCTION      0.03     0.89     0  13:49     0.00213      0.0683       0.054
  W000002495           JUNCTION      0.03     0.87     0  13:48     0.00213      0.0662       0.001
  W000002496           JUNCTION      0.03     0.84     0  13:45     0.00213       0.064       0.005
  W000002497           JUNCTION      0.03     0.78     0  13:45     0.00213      0.0598      -0.001
  W000002498           JUNCTION      0.03     0.76     0  13:43     0.00213      0.0576       0.008
  W000002499           JUNCTION      0.03     0.73     0  13:42     0.00213      0.0555      -0.003
  W000002500           JUNCTION      0.03     0.25     0  13:40     0.00213      0.0192       0.004
  W000002501           JUNCTION      0.03     0.21     0  12:32     0.00213     0.00853      -0.290
  W000002502           JUNCTION      0.03     0.39     0  12:33     0.00213      0.0128       0.174
  W000002503           JUNCTION      0.03     0.10     0  12:32     0.00213      0.0064      -0.025
  W000002504           JUNCTION      0.03     0.11     0  12:52     0.00213     0.00427       0.130
  W000002505           JUNCTION      0.03     0.03     0  13:30     0.00213     0.00213       0.033
  W000002506           JUNCTION      0.03     0.06     0  13:35     0.00213     0.00426       0.006
  W000002507           JUNCTION      0.03     2.95     0  13:50     0.00213       0.226      -2.980
  W000002508           JUNCTION      0.03     1.78     0  13:49     0.00213       0.137       0.001
  W000002509           JUNCTION      0.03     1.76     0  13:48     0.00213       0.135       0.002
  W000002510           JUNCTION      0.03     0.42     0  13:48     0.00213      0.0323       0.005
  W000002511           JUNCTION      0.03     0.39     0  13:45     0.00213      0.0302       0.006
  W000002512           JUNCTION      0.03     0.31     0  13:45     0.00213      0.0238      -0.001
  W000002513           JUNCTION      0.03     0.28     0  13:45     0.00213      0.0217       0.005
  W000002514           JUNCTION      0.03     0.25     0  13:45     0.00213      0.0195       0.007
  W000002515           JUNCTION      0.03     0.22     0  13:44     0.00213      0.0174       0.004
  W000002516           JUNCTION      0.03     0.20     0  13:40     0.00213      0.0153       0.020
  W000002517           JUNCTION      0.03     0.17     0  13:40     0.00213      0.0131      -0.004
  W000002518           JUNCTION      0.03     0.06     0  20:25     0.00213     0.00546    1437.364
  W000002519           JUNCTION      0.03     0.04     0  19:53     0.00213     0.00388      16.620
  W000002520           JUNCTION      0.03     0.03     0  13:30     0.00213     0.00213      22.267
  W000002521           JUNCTION      0.03     0.22     0  13:40     0.00213      0.0171       0.020
  W000002522           JUNCTION      0.03     0.17     0  13:40     0.00213      0.0128       0.011
  W000002523           JUNCTION      0.03     0.14     0  13:40     0.00213      0.0107       0.013
  W000002524           JUNCTION      0.03     0.11     0  13:40     0.00213     0.00853       0.008
  W000002525           JUNCTION      0.03     0.09     0  12:39     0.00213      0.0064       0.113
  W000002526           JUNCTION      0.03     0.03     0  13:30     0.00213     0.00213      -0.006
  W000002527           JUNCTION      0.03     0.03     0  13:30     0.00213     0.00213      -0.634
  W000002528           JUNCTION      0.03     1.31     0  13:47     0.00213         0.1      -0.001
  W000002529           JUNCTION      0.03     1.29     0  13:45     0.00213      0.0983       0.004
  W000002530           JUNCTION      0.03     0.14     0  13:40     0.00213      0.0107       0.007
  W000002531           JUNCTION      0.03     0.19     0  12:50     0.00213     0.00854       0.156
  W000002532           JUNCTION      0.03     0.08     0  13:40     0.00213      0.0064      -0.231
  W000002533           JUNCTION      0.03     0.06     0  13:35     0.00213     0.00426       0.028
  W000002534           JUNCTION      0.03     0.06     0  13:40     0.00213     0.00426       0.034
  W000002535           JUNCTION      0.03     0.03     0  13:30     0.00213     0.00213       0.047
  W000002536           JUNCTION      0.03     0.14     0  13:40     0.00213      0.0107       0.007
  W000002537           JUNCTION      0.03     0.18     0  12:32     0.00213     0.00854       0.170
  W000002538           JUNCTION      0.03     0.08     0  13:35     0.00213      0.0064      -0.257
  W000002539           JUNCTION      0.03     0.10     0  12:51     0.00213     0.00427       0.136
  W000002540           JUNCTION      0.03     0.45     0  13:42     0.00213      0.0342       0.001
  W000002541           JUNCTION      0.03     0.42     0  13:40     0.00213       0.032       0.004
  W000002542           JUNCTION      0.03     0.39     0  13:40     0.00213      0.0299      -0.000
  W000002543           JUNCTION      0.03     0.45     0  12:51     0.00213      0.0171       0.249
  W000002544           JUNCTION      0.03     0.17     0  13:39     0.00213      0.0128      -0.540
  W000002545           JUNCTION      0.03     0.14     0  13:35     0.00213      0.0107       0.014
  W000002546           JUNCTION      0.03     0.13     0  12:48     0.00213     0.00854       0.096
  W000002547           JUNCTION      0.03     0.09     0  12:32     0.00213      0.0064      -0.120
  W000002548           JUNCTION      0.03     0.14     0  12:52     0.00213     0.00428       0.147
  W000002549           JUNCTION      0.03     0.11     0  12:32     0.00213     0.00641      -0.016
  W000002550           JUNCTION      0.03     0.17     0  12:54     0.00213     0.00428       0.219
  W000002551           JUNCTION      0.03     0.03     0  13:30     0.00213     0.00213      -0.653
  W000002552           JUNCTION      0.03     0.06     0  13:35     0.00213     0.00426       0.036
  W000002554           JUNCTION      0.03     1.32     0  13:43     0.00213         0.1       0.020
  W000002555           JUNCTION      0.03     0.22     0  13:40     0.00213      0.0171       0.007
  W000002556           JUNCTION      0.03     0.20     0  13:40     0.00213      0.0149       0.009
  W000002557           JUNCTION      0.03     0.17     0  12:29     0.00213      0.0128       0.005
  W000002558           JUNCTION      0.03     0.17     0  12:50     0.00213      0.0107       0.074
  W000002559           JUNCTION      0.03     0.11     0  13:40     0.00213     0.00853      -0.188
  W000002560           JUNCTION      0.03     0.08     0  13:35     0.00213      0.0064       0.017
  W000002561           JUNCTION      0.03     0.16     0  12:29     0.00213     0.00427       0.030
  W000002562           JUNCTION      0.03     1.07     0  13:42     0.00213      0.0811       0.003
  W000002563           JUNCTION      0.03     1.04     0  13:40     0.00213       0.079       0.000
  W000002564           JUNCTION      0.03     0.59     0  13:40     0.00213      0.0448       0.005
  W000002565           JUNCTION      0.03     0.56     0  13:40     0.00213      0.0427      -0.001
  W000002566           JUNCTION      0.03     0.42     0  13:40     0.00213       0.032      -0.006
  W000002567           JUNCTION      0.03     0.40     0  13:39     0.00213      0.0299       0.027
  W000002568           JUNCTION      0.03     0.25     0  13:38     0.00213      0.0192      -0.040
  W000002569           JUNCTION      0.03     0.19     0  12:34     0.00213      0.0128       0.001
  W000002570           JUNCTION      0.03     0.47     0  12:30     0.00213      0.0107      -0.027
  W000002571           JUNCTION      0.03     0.51     0  12:30     0.00213     0.00858       0.001
  W000002572           JUNCTION      0.03     0.19     0  12:29     0.00213     0.00641      -0.643
  W000002573           JUNCTION      0.03     0.14     0  12:29     0.00213     0.00427      -0.013
  W000002574           JUNCTION      0.03     0.03     0  13:30     0.00213     0.00213      -0.422
  W000002575           JUNCTION      0.03     0.09     0  12:29     0.00213     0.00427      -0.001
  W000002576           JUNCTION      0.03     0.06     0  13:35     0.00213     0.00426       0.010
  W000002577           JUNCTION      0.03     0.06     0  13:35     0.00213     0.00427      -0.000
  W000002578           JUNCTION      0.03     0.03     0  13:30     0.00213     0.00213      -0.018
  W000002579           JUNCTION      0.03     0.06     0  13:35     0.00213     0.00426       0.017
  W000002580           JUNCTION      0.03     0.48     0  13:40     0.00213      0.0363      -0.016
  W000002581           JUNCTION      0.03     0.34     0  13:39     0.00213      0.0256       0.002
  W000002582           JUNCTION      0.03     0.26     0  12:30     0.00213      0.0192       0.014
  W000002583           JUNCTION      0.03     0.23     0  13:38     0.00213      0.0171      -0.015
  W000002584           JUNCTION      0.03     0.58     0  12:29     0.00213      0.0149       0.018
  W000002585           JUNCTION      0.03     0.17     0  13:35     0.00213      0.0128      -0.112
  W000002586           JUNCTION      0.03     0.22     0  12:29     0.00213     0.00854       0.011
  W000002587           JUNCTION      0.03     0.24     0  12:32     0.00213     0.00641       0.076
  W000002588           JUNCTION      0.03     0.03     0  13:30     0.00213     0.00213      -0.255
  W000002590           JUNCTION      0.03     0.38     0  12:29     0.00213     0.00854       0.010
  W000002591           JUNCTION      0.03     0.29     0  12:32     0.00213     0.00641       0.004
  W000002592           JUNCTION      0.03     0.12     0  12:54     0.00213     0.00427       0.128
  W000002593           JUNCTION      0.03     0.03     0  13:30     0.00213     0.00213      -0.023
  W000002594           JUNCTION      0.03     1.87     0  15:02     0.00213        0.12      -2.545
  W000002595           JUNCTION      0.03     0.23     0  13:40     0.00213      0.0171      -0.003
  W000002596           JUNCTION      0.03     0.06     0  13:35     0.00213     0.00426       0.014
  W000002597           JUNCTION      0.03     0.14     0  13:40     0.00213      0.0107       0.008
  W000002598           JUNCTION      0.03     0.11     0  13:35     0.00213     0.00853       0.008
  W000002599           JUNCTION      0.03     6.48     0  13:41     0.00213       0.181      -0.082
  W000002600           JUNCTION      0.03     6.75     0  13:40     0.00213       0.179      -0.077
  W000002601           JUNCTION      0.03     7.52     0  13:54     0.00213       0.177       0.124
  W000002602           JUNCTION      0.03     7.53     0  13:53     0.00213       0.174       0.677
  W000002603           JUNCTION      0.03     7.66     0  13:52     0.00213       0.171      -0.126
  W000002604           JUNCTION      0.03     8.61     1  23:41     0.00213       0.169      -0.067
  W000002605           JUNCTION      0.03     0.21     0  12:54     0.00213     0.00429       0.376
  W000002606           JUNCTION      0.03     0.42     0  13:40     0.00213      0.0321       0.021
  W000002607           JUNCTION      0.03     0.37     0  13:40     0.00213      0.0278       0.016
  W000002608           JUNCTION      0.03     0.31     0  13:40     0.00213      0.0235       0.010
  W000002609           JUNCTION      0.03     0.28     0  13:40     0.00213      0.0214      -0.009
  W000002610           JUNCTION      0.03     0.46     0  12:54     0.00213      0.0193       0.174
  W000002611           JUNCTION      0.03     0.17     0  13:40     0.00213      0.0128       0.008
  W000002612           JUNCTION      0.03     0.14     0  13:40     0.00213      0.0107       0.012
  W000002613           JUNCTION      0.03     0.11     0  13:40     0.00213     0.00854       0.013
  W000002614           JUNCTION      0.03     0.08     0  13:35     0.00213      0.0064       0.009
  W000002615           JUNCTION      0.03     0.17     0  12:51     0.00213     0.00428       0.201
  W000002616           JUNCTION      0.03     0.03     0  13:30     0.00213     0.00213      -0.746
  W000002617           JUNCTION      0.03     0.07     0  12:54     0.00213     0.00427      -2.060
  W000002618           JUNCTION      0.03     0.03     0  13:30     0.00213     0.00213      -0.214
  W000002619           JUNCTION      0.03     0.06     0  13:35     0.00213     0.00426       0.011
  W000002620           JUNCTION      0.03     0.31     0  13:40     0.00213      0.0235       0.007
  W000002621           JUNCTION      0.03    17.42     0  00:02     0.00213       0.472       1.111
  W000002622           JUNCTION      0.03    13.90     0  14:06     0.00213       0.469       0.000
  W000002623           JUNCTION      0.03    14.01     0  14:06     0.00213       0.467      -0.001
  W000002624           JUNCTION      0.03    18.31     0  00:02     0.00213        0.42      -0.393
  W000002625           JUNCTION      0.03     5.16     0  13:47     0.00213       0.237       1.513
  W000002626           JUNCTION      0.03     5.22     0  13:46     0.00213       0.235      -0.004
  W000002627           JUNCTION      0.03     5.27     0  13:46     0.00213       0.233       0.003
  W000002628           JUNCTION      0.03     5.23     0  13:46     0.00213       0.228      -0.022
  W000002629           JUNCTION      0.03     5.34     0  13:45     0.00213       0.226       0.018
  W000002630           JUNCTION      0.03     5.53     0  13:44     0.00213       0.218      -0.002
  W000002631           JUNCTION      0.03     5.52     0  13:43     0.00213       0.216      -0.022
  W000002632           JUNCTION      0.03     6.25     0  13:42     0.00213       0.213      -0.076
  W000002633           JUNCTION      0.03     6.57     0  13:41     0.00213       0.211      -0.065
  W000002634           JUNCTION      0.03     0.36     0  13:43     0.00213      0.0278      -0.270
  W000002635           JUNCTION      0.03     0.34     0  13:40     0.00213      0.0257       0.004
  W000002636           JUNCTION      0.03     0.31     0  13:40     0.00213      0.0235       0.021
  W000002637           JUNCTION      0.03     0.33     0  12:44     0.00213      0.0213      -0.239
  W000002639           JUNCTION      0.03     0.26     0  12:54     0.00213       0.015       0.181
  W000002640           JUNCTION      0.03     0.17     0  13:40     0.00213      0.0128      -0.276
  W000002641           JUNCTION      0.03     0.14     0  13:35     0.00213      0.0107       0.019
  W000002642           JUNCTION      0.03     0.16     0  12:51     0.00213      0.0064       0.061
  W000002643           JUNCTION      0.03     0.08     0  12:54     0.00213     0.00427      -0.039
  W000002644           JUNCTION      0.03    26.83     0  00:01     0.00213       0.185       0.142
  W000002645           JUNCTION      0.03    38.43     0  00:01     0.00213       0.182      -0.177
  W000002646           JUNCTION      0.03    49.66     0  00:00     0.00213       0.181       0.199
  W000002647           JUNCTION      0.03    26.06     0  00:00     0.00213       0.176      -1.253
  W000002648           JUNCTION      0.03     0.56     0  13:40     0.00213      0.0426      -0.002
  W000002649           JUNCTION      0.03     0.53     0  13:40     0.00213      0.0405       0.001
  W000002650           JUNCTION      0.03     0.51     0  13:40     0.00213      0.0384       0.000
  W000002651           JUNCTION      0.03     0.42     0  13:40     0.00213       0.032       0.016
  W000002652           JUNCTION      0.03     0.34     0  13:40     0.00213      0.0256       0.037
  W000002653           JUNCTION      0.03     0.25     0  13:40     0.00213      0.0192       0.003
  W000002654           JUNCTION      0.03     0.23     0  13:40     0.00213      0.0171       0.001
  W000002655           JUNCTION      0.03     0.20     0  12:34     0.00213      0.0149       0.008
  W000002656           JUNCTION      0.03     0.15     0  12:40     0.00213     0.00428       0.049
  W000002657           JUNCTION      0.03     0.11     0  13:40     0.00213     0.00853       0.001
  W000002658           JUNCTION      0.03     0.08     0  13:40     0.00213      0.0064       0.006
  W000002659           JUNCTION      0.03     0.06     0  13:35     0.00213     0.00426       0.024
  W000002660           JUNCTION      0.03     0.06     0  13:35     0.00213     0.00426      -0.044
  W000002661           JUNCTION      0.03     0.12     0  12:50     0.00213      0.0064      -0.894
  W000002662           JUNCTION      0.03     0.03     0  13:30     0.00213     0.00213      -0.189
  W000002663           JUNCTION      0.03     0.13     0  12:51     0.00213     0.00428      -0.326
  W000002664           JUNCTION      0.03    74.75     0  00:01     0.00213       0.763      -0.656
  W000002665           JUNCTION      0.03    92.31     0  00:01     0.00213        0.28       0.015
  W000002666           JUNCTION      0.03   112.93     0  00:01     0.00213       0.279       0.104
  W000002667           JUNCTION      0.03   101.76     0  00:01     0.00213       0.277       0.104
  W000002668           JUNCTION      0.03   132.74     0  00:00     0.00213       0.273      -0.927
  W000002669           JUNCTION      0.03   273.39     0  00:00     0.00213       0.274      -0.344
  W000002670           JUNCTION      0.03   164.14     0  00:00     0.00213       0.267      -1.825
  W000002671           JUNCTION      0.03    74.41     0  00:00     0.00213       0.262      -0.784
  W000002672           JUNCTION      0.03    37.57     0  00:00     0.00213       0.227      -0.434
  W000002673           JUNCTION      0.03    16.58     0  00:00     0.00213       0.174      -0.090
  W000002674           JUNCTION      0.03     0.56     0  12:52     0.00213      0.0301      -0.022
  W000002675           JUNCTION      0.03     0.74     0  12:51     0.00213       0.028       0.207
  W000002676           JUNCTION      0.03     1.16     0  12:52     0.00213      0.0256      -1.194
  W000002677           JUNCTION      0.03     0.41     0  12:54     0.00213      0.0193       0.501
  W000002678           JUNCTION      0.03     0.20     0  13:40     0.00213       0.015      -0.284
  W000002679           JUNCTION      0.03     0.17     0  13:40     0.00213      0.0128       0.002
  W000002680           JUNCTION      0.03     0.14     0  13:40     0.00213      0.0107       0.008
  W000002681           JUNCTION      0.03     0.33     0  12:51     0.00213     0.00859       0.311
  W000002682           JUNCTION      0.03     0.06     0  12:51     0.00213     0.00427      -0.042
  W000002683           JUNCTION      0.03     0.08     0  13:35     0.00213      0.0064      -0.157
  W000002684           JUNCTION      0.03     0.06     0  12:50     0.00213     0.00427       0.114
  W000002685           JUNCTION      0.03     0.45     0  13:40     0.00213      0.0341      -0.012
  W000002686           JUNCTION      0.03     0.39     0  13:40     0.00213      0.0298       0.002
  W000002687           JUNCTION      0.03     0.31     0  13:40     0.00213      0.0235       0.002
  W000002688           JUNCTION      0.03     0.17     0  13:40     0.00213      0.0128       0.001
  W000002689           JUNCTION      0.03     0.14     0  13:35     0.00213      0.0107       0.007
  W000002690           JUNCTION      0.03     0.08     0  13:35     0.00213      0.0064       0.055
  W000002691           JUNCTION      0.03     0.06     0  13:35     0.00213     0.00426      -0.060
  W000002692           JUNCTION      0.03     0.06     0  13:35     0.00213     0.00426       0.004
  W000002693           JUNCTION      0.03     0.11     0  13:35     0.00213     0.00853       0.009
  W000002694           JUNCTION      0.03     0.07     0  12:29     0.00213     0.00427       0.017
  W000002696           JUNCTION      0.03     0.64     0  13:43     0.00213      0.0491      -0.000
  W000002697           JUNCTION      0.03     0.62     0  13:43     0.00213      0.0469       0.001
  W000002698           JUNCTION      0.03     0.39     0  13:42     0.00213      0.0299      -0.019
  W000002699           JUNCTION      0.03     0.37     0  13:40     0.00213      0.0277       0.005
  W000002700           JUNCTION      0.03     0.25     0  13:40     0.00213      0.0192       0.006
  W000002701           JUNCTION      0.03     0.17     0  13:40     0.00213      0.0128       0.009
  W000002702           JUNCTION      0.03     0.14     0  12:34     0.00213     0.00854       0.122
  W000002703           JUNCTION      0.03     0.10     0  12:38     0.00213      0.0064      -0.182
  W000002704           JUNCTION      0.03     0.09     0  12:54     0.00213     0.00427       0.085
  W000002705           JUNCTION      0.03     0.03     0  13:30     0.00213     0.00213      -0.258
  W000002706           JUNCTION      0.03     0.42     0  13:40     0.00213       0.032       0.003
  W000002707           JUNCTION      0.03     0.14     0  13:40     0.00213      0.0107       0.015
  W000002708           JUNCTION      0.03     0.19     0  12:53     0.00213     0.00855       0.095
  W000002709           JUNCTION      0.03     0.08     0  13:40     0.00213      0.0064      -0.338
  W000002710           JUNCTION      0.03     0.06     0  13:35     0.00213     0.00426       0.028
  W000002711           JUNCTION      0.03     0.23     0  13:40     0.00213      0.0171      -0.022
  W000002712           JUNCTION      0.03     0.14     0  13:40     0.00213      0.0107       0.009
  W000002713           JUNCTION      0.03     0.11     0  13:40     0.00213     0.00853      -0.025
  W000002714           JUNCTION      0.03     0.08     0  13:35     0.00213      0.0064       0.014
  W000002715           JUNCTION      0.03     0.06     0  13:35     0.00213     0.00426       0.002
  W000002716           JUNCTION      0.03     0.06     0  13:35     0.00213     0.00426      -0.038
  W000002717           JUNCTION      0.03     0.06     0  13:35     0.00213     0.00427      -0.019
  W000002719           JUNCTION      0.03     1.74     0  13:45     0.00213       0.145       0.006
  W000002720           JUNCTION      0.03     1.71     0  13:44     0.00213       0.143       0.011
  W000002721           JUNCTION      0.03     1.68     0  13:43     0.00213        0.14       0.009
  W000002722           JUNCTION      0.03     1.12     0  13:44     0.00213      0.0977       0.014
  W000002723           JUNCTION      0.03     1.10     0  13:43     0.00213      0.0956       0.013
  W000002724           JUNCTION      0.03     1.07     0  13:43     0.00213      0.0934      -0.006
  W000002725           JUNCTION      0.03     1.59     0  12:35     0.00213      0.0915       0.216
  W000002726           JUNCTION      0.03     0.25     0  13:40     0.00213      0.0192       0.010
  W000002727           JUNCTION      0.03     0.23     0  13:40     0.00213      0.0171       0.003
  W000002728           JUNCTION      0.03     0.20     0  12:29     0.00213      0.0149      -0.003
  W000002729           JUNCTION      0.03     0.14     0  13:39     0.00213      0.0107      -0.004
  W000002730           JUNCTION      0.03     0.37     0  12:29     0.00213     0.00854       0.005
  W000002731           JUNCTION      0.03     0.13     0  12:31     0.00213      0.0064      -0.136
  W000002732           JUNCTION      0.03     0.06     0  13:35     0.00213     0.00426      -0.031
  W000002733           JUNCTION      0.03     0.85     0  12:30     0.00213      0.0406       0.001
  W000002734           JUNCTION      0.03     0.55     0  12:51     0.00213      0.0385       0.008
  W000002735           JUNCTION      0.03     0.72     0  12:51     0.00213      0.0342      -0.000
  W000002736           JUNCTION      0.03     0.59     0  12:53     0.00213      0.0171       0.000
  W000002737           JUNCTION      0.03     0.26     0  12:50     0.00213      0.0128      -0.214
[...]
  W000001996              9.74   0.05  0.23  0.00  0.00  0.72  0.00  0.00  0.90  0.00
  W000001997              1.00   0.05  0.00  0.00  0.00  0.00  0.00  0.95  0.00  0.00
  W000001998              1.00   0.28  0.00  0.00  0.00  0.00  0.00  0.72  0.00  0.00
  W000001999              1.63   0.05  0.23  0.00  0.00  0.72  0.00  0.00  0.90  0.00
  W000002000              1.00   0.05  0.00  0.00  0.23  0.72  0.00  0.00  0.50  0.00
  W000002001              1.00   0.05  0.00  0.00  0.00  0.00  0.00  0.95  0.00  0.00
  W000002002              1.35   0.05  0.00  0.00  0.23  0.72  0.00  0.00  0.89  0.00
  W000002003              1.87   0.05  0.00  0.00  0.23  0.72  0.00  0.00  0.89  0.00
  W000002004              4.76   0.05  0.00  0.00  0.23  0.72  0.00  0.00  0.90  0.00
  W000002005              1.00   0.05  0.00  0.00  0.00  0.00  0.00  0.95  0.00  0.00
  W000002006              1.31   0.05  0.23  0.00  0.72  0.00  0.00  0.00  0.90  0.00
  W000002007              1.00   0.05  0.00  0.00  0.23  0.72  0.00  0.00  0.90  0.00
  W000002008              1.79   0.05  0.00  0.00  0.23  0.72  0.00  0.00  0.90  0.00
  W000002009              2.34   0.05  0.00  0.00  0.23  0.72  0.00  0.00  0.90  0.00
  W000002010              2.72   0.05  0.00  0.00  0.23  0.72  0.00  0.00  0.51  0.00
  W000002011              2.89   0.05  0.00  0.00  0.23  0.72  0.00  0.00  0.90  0.00
  W000002012              1.00   0.05  0.00  0.00  0.00  0.00  0.00  0.95  0.00  0.00
  W000002013              1.00   0.05  0.00  0.00  0.00  0.95  0.00  0.00  0.00  0.00
  W000002014              1.00   0.05  0.22  0.00  0.01  0.72  0.00  0.00  0.51  0.00
  W000002015              1.00   0.05  0.00  0.00  0.23  0.72  0.00  0.00  0.90  0.00
  W000002016              1.00   0.05  0.00  0.00  0.23  0.72  0.00  0.00  0.90  0.00
  W000002017              1.00   0.05  0.00  0.00  0.23  0.72  0.00  0.00  0.90  0.00
  W000002018              1.00   0.05  0.00  0.00  0.23  0.72  0.00  0.00  0.90  0.00
  W000002019              1.00   0.05  0.00  0.00  0.23  0.72  0.00  0.00  0.90  0.00
  W000002020              1.00   0.05  0.00  0.00  0.23  0.72  0.00  0.00  0.90  0.00
  W000002021              1.00   0.05  0.23  0.00  0.72  0.00  0.00  0.00  0.90  0.00
  W000002022              1.00   0.05  0.00  0.00  0.00  0.95  0.00  0.00  0.90  0.00
  W000002023              1.00   0.05  0.00  0.00  0.00  0.95  0.00  0.00  0.00  0.00
  W000002024              1.31   0.05  0.00  0.00  0.00  0.95  0.00  0.00  0.88  0.00
  W000002026              1.55   0.05  0.00  0.00  0.00  0.95  0.00  0.00  0.21  0.00
  W000002027              1.65   0.05  0.10  0.00  0.14  0.71  0.00  0.00  0.25  0.00
  W000002028              1.00   0.09  0.04  0.00  0.00  0.00  0.88  0.00  0.00  0.00
  W000002029              1.12   0.12  0.23  0.00  0.62  0.03  0.00  0.01  0.85  0.00
  W000002030              1.00   0.27  0.01  0.00  0.72  0.00  0.00  0.00  0.90  0.00
  W000002031              1.00   0.05  0.23  0.00  0.04  0.68  0.00  0.00  0.90  0.00
  W000002032              1.28   0.05  0.00  0.00  0.23  0.72  0.00  0.00  0.90  0.00
  W000002033              1.00   0.05  0.00  0.00  0.23  0.72  0.00  0.00  0.90  0.00
  W000002034              1.50   0.05  0.00  0.00  0.23  0.72  0.00  0.00  0.90  0.00
  W000002035              1.07   0.05  0.00  0.00  0.23  0.72  0.00  0.00  0.51  0.00
  W000002036              1.30   0.05  0.23  0.00  0.00  0.72  0.00  0.00  0.39  0.00
  W000002037              1.00   0.05  0.00  0.00  0.23  0.72  0.00  0.00  0.51  0.00
  W000002038              1.00   0.05  0.00  0.00  0.23  0.72  0.00  0.00  0.51  0.00
  W000002039              1.00   0.05  0.00  0.00  0.24  0.71  0.00  0.00  0.90  0.00
  W000002040              1.03   0.05  0.00  0.00  0.23  0.72  0.00  0.00  0.90  0.00
  W000002041              1.11   0.05  0.00  0.00  0.23  0.72  0.00  0.00  0.90  0.00
  W000002042              1.00   0.05  0.23  0.00  0.72  0.00  0.00  0.00  0.90  0.00
  W000002043              1.00   0.05  0.00  0.00  0.00  0.00  0.00  0.95  0.00  0.00
  W000002044              1.00   0.05  0.00  0.00  0.23  0.72  0.00  0.00  0.55  0.00
  W000002045              1.00   0.05  0.00  0.00  0.00  0.00  0.00  0.95  0.00  0.00
  W000002046              1.00   0.05  0.23  0.00  0.71  0.02  0.00  0.00  0.90  0.00
  W000002047              1.00   0.05  0.00  0.00  0.23  0.72  0.00  0.00  0.00  0.00
  W000002048              1.00   0.05  0.00  0.00  0.00  0.00  0.00  0.95  0.00  0.00
  W000002049              1.00   0.05  0.00  0.00  0.23  0.72  0.00  0.00  0.51  0.00
  W000002050              1.00   0.05  0.00  0.00  0.23  0.72  0.00  0.00  0.90  0.00
  W000002051              1.00   0.05  0.00  0.00  0.23  0.72  0.00  0.00  0.90  0.00
  W000002052              1.00   0.05  0.01  0.00  0.94  0.00  0.00  0.00  0.89  0.00
  W000002053              1.00   0.05  0.00  0.00  0.95  0.00  0.00  0.00  0.48  0.00
  W000002054              1.00   0.05  0.00  0.00  0.95  0.00  0.00  0.00  0.88  0.00
  W000002055              1.00   0.05  0.00  0.00  0.87  0.08  0.00  0.00  0.86  0.00
  W000002056              1.00   0.05  0.00  0.00  0.89  0.07  0.00  0.00  0.85  0.00
  W000002057              1.00   0.05  0.00  0.00  0.90  0.05  0.00  0.00  0.86  0.00
  W000002058              1.00   0.05  0.00  0.00  0.23  0.72  0.00  0.00  0.88  0.00
  W000002059              1.00   0.05  0.00  0.00  0.23  0.72  0.00  0.00  0.88  0.00
  W000002060              1.00   0.05  0.23  0.00  0.00  0.72  0.00  0.00  0.38  0.00
  W000002061              1.00   0.28  0.00  0.00  0.00  0.72  0.00  0.00  0.10  0.00
  W000002062              1.00   0.05  0.00  0.00  0.00  0.00  0.00  0.95  0.00  0.00
  W000002063              2.17   0.05  0.00  0.00  0.00  0.00  0.00  0.95  0.00  0.00
  W000002064              1.00   0.05  0.00  0.00  0.28  0.67  0.00  0.00  0.88  0.00
  W000002065              1.00   0.05  0.20  0.00  0.28  0.47  0.00  0.00  0.90  0.00
  W000002066              1.00   0.05  0.00  0.00  0.22  0.73  0.00  0.00  0.49  0.00
  W000002067              1.89   0.05  0.23  0.00  0.72  0.00  0.00  0.00  0.90  0.00
  W000002068              1.00   0.05  0.00  0.00  0.23  0.72  0.00  0.00  0.90  0.00
  W000002069              1.00   0.05  0.00  0.00  0.22  0.73  0.00  0.00  0.49  0.00
  W000002070              1.99   0.05  0.23  0.00  0.72  0.00  0.00  0.00  0.90  0.00
  W000002071              1.00   0.05  0.00  0.00  0.00  0.00  0.00  0.95  0.00  0.00
  W000002072              1.00   0.05  0.00  0.00  0.23  0.72  0.00  0.00  0.89  0.00
  W000002073              1.00   0.05  0.00  0.00  0.95  0.00  0.00  0.00  0.00  0.00
  W000002074              1.00   0.05  0.00  0.00  0.00  0.00  0.00  0.95  0.00  0.00
  W000002075              1.00   0.05  0.00  0.00  0.83  0.12  0.00  0.00  0.50  0.00
  W000002076              1.00   0.05  0.00  0.00  0.00  0.00  0.00  0.95  0.00  0.00
  W000002077              1.00   0.05  0.00  0.00  0.00  0.00  0.00  0.95  0.00  0.00
  W000002078              1.00   0.05  0.00  0.00  0.00  0.00  0.00  0.95  0.00  0.00
  W000002079              1.00   0.05  0.00  0.00  0.23  0.72  0.00  0.00  0.51  0.00
  W000002080              1.00   0.05  0.00  0.00  0.00  0.00  0.00  0.95  0.00  0.00
  W000002081              1.00   0.05  0.00  0.00  0.95  0.00  0.00  0.00  0.90  0.00
  W000002082              1.00   0.05  0.00  0.00  0.00  0.00  0.00  0.95  0.00  0.00
  W000002083              1.00   0.05  0.00  0.00  0.00  0.00  0.00  0.95  0.00  0.00
  W000007607              1.00   0.05  0.00  0.00  0.23  0.72  0.00  0.00  0.89  0.00
  W000008446              1.00   0.00  0.00  0.00  0.92  0.08  0.00  0.00  0.85  0.00
  W000008447              1.00   0.00  0.00  0.00  0.97  0.03  0.00  0.00  0.98  0.00
  W000008448              1.00   0.00  0.00  0.00  0.93  0.07  0.00  0.00  0.78  0.00
  W000008454              1.00   0.00  0.00  0.00  0.97  0.03  0.00  0.00  0.76  0.00
  W000008455              1.00   0.00  0.00  0.00  1.00  0.00  0.00  0.00  0.00  0.00
  W000008456              1.00   0.00  0.05  0.00  0.95  0.00  0.00  0.00  0.87  0.00
  W000008457              1.00   0.00  0.06  0.00  0.81  0.14  0.00  0.00  0.83  0.00
  W000008458              1.00   0.00  0.00  0.00  0.96  0.04  0.00  0.00  0.24  0.00
  W000014057              1.61   0.05  0.00  0.00  0.00  0.00  0.00  0.95  0.00  0.00
  W000014968              1.00   0.00  0.25  0.00  0.75  0.00  0.00  0.00  1.00  0.00
  W000014969              1.00   0.03  0.01  0.00  0.23  0.72  0.00  0.00  0.90  0.00
  W000014970              1.00   0.05  0.00  0.00  0.23  0.72  0.00  0.00  0.00  0.00
  W000014971              1.00   0.05  0.00  0.00  0.93  0.02  0.00  0.00  0.89  0.00
  W000014972              1.00   0.05  0.00  0.00  0.95  0.00  0.00  0.00  0.90  0.00
  W000014973              1.00   0.05  0.00  0.00  0.95  0.00  0.00  0.00  0.90  0.00
  W000015041              1.00   0.05  0.00  0.00  0.95  0.00  0.00  0.00  0.71  0.00
  W000015042              1.00   0.05  0.00  0.00  0.00  0.00  0.00  0.95  0.00  0.00
  W000015043              1.00   0.05  0.00  0.00  0.23  0.72  0.00  0.00  0.51  0.00
  W000015044              1.00   0.05  0.00  0.00  0.23  0.72  0.00  0.00  0.89  0.00
  W000015045              1.00   0.05  0.00  0.00  0.22  0.73  0.00  0.00  0.49  0.00
  W000015046              5.12   0.05  0.00  0.00  0.23  0.72  0.00  0.00  0.50  0.00
  W000015047              1.14   0.27  0.00  0.00  0.00  0.00  0.00  0.73  0.00  0.00
  W000015048              1.09   0.05  0.00  0.00  0.23  0.73  0.00  0.00  0.50  0.00
  W000015049              1.00   0.05  0.00  0.00  0.62  0.33  0.00  0.00  0.90  0.00
  W000015050              1.00   0.05  0.00  0.00  0.26  0.69  0.00  0.00  0.89  0.00
  W000015051              1.00   0.05  0.00  0.00  0.00  0.00  0.00  0.95  0.00  0.00
  W000015052              1.00   0.05  0.00  0.00  0.23  0.72  0.00  0.00  0.90  0.00
  W000015053              1.00   0.05  0.00  0.00  0.23  0.72  0.00  0.00  0.90  0.00
  W000015054              1.00   0.05  0.00  0.00  0.00  0.00  0.00  0.95  0.00  0.00
  W000015055              1.07   0.05  0.00  0.00  0.25  0.70  0.00  0.00  0.90  0.00
  W000015056              1.00   0.05  0.00  0.00  0.00  0.00  0.00  0.95  0.00  0.00
  W000015057              1.00   0.05  0.00  0.00  0.00  0.00  0.00  0.95  0.00  0.00
  W000015058              1.32   0.05  0.00  0.00  0.00  0.00  0.00  0.95  0.00  0.00
  W000015059              1.00   0.05  0.00  0.00  0.00  0.00  0.00  0.95  0.00  0.00
  W000015060              1.00   0.05  0.00  0.00  0.00  0.00  0.00  0.95  0.00  0.00
  W000015061              1.05   0.05  0.00  0.00  0.29  0.66  0.00  0.00  0.90  0.00
  W000015062              1.00   0.05  0.00  0.00  0.00  0.00  0.00  0.95  0.00  0.00
  W000015063              1.12   0.05  0.00  0.00  0.00  0.00  0.00  0.95  0.00  0.00
  W000015064              1.00   0.05  0.00  0.00  0.23  0.72  0.00  0.00  0.50  0.00
  W000015065              1.00   0.05  0.00  0.00  0.95  0.00  0.00  0.00  0.90  0.00
  W000015066              1.00   0.05  0.00  0.00  0.23  0.72  0.00  0.00  0.90  0.00
  W000015067              1.00   0.05  0.00  0.00  0.23  0.72  0.00  0.00  0.00  0.00
  W000015068              1.00   0.05  0.00  0.00  0.00  0.00  0.00  0.95  0.00  0.00
  W000015069              1.00   0.05  0.00  0.00  0.23  0.72  0.00  0.00  0.89  0.00
  W000015070              1.32   0.05  0.00  0.00  0.00  0.00  0.00  0.95  0.00  0.00
  W000015071              1.00   0.05  0.00  0.00  0.00  0.00  0.00  0.95  0.00  0.00
  W000015072              1.00   0.05  0.00  0.00  0.00  0.00  0.00  0.95  0.00  0.00
  W000015073              1.00   0.05  0.00  0.00  0.00  0.00  0.00  0.95  0.00  0.00
  W000015074              1.00   0.05  0.00  0.00  0.00  0.00  0.00  0.95  0.00  0.00
  W000015075              1.06   0.05  0.00  0.00  0.00  0.00  0.00  0.95  0.00  0.00
  W000015076              1.00   0.05  0.00  0.00  0.00  0.00  0.00  0.95  0.00  0.00
  W000015077              1.00   0.05  0.00  0.00  0.00  0.00  0.00  0.95  0.00  0.00
  W000015078              1.00   0.05  0.00  0.00  0.00  0.00  0.00  0.95  0.00  0.00
  W000015079              1.00   0.05  0.00  0.00  0.23  0.72  0.00  0.00  0.90  0.00
  W000015080              1.00   0.05  0.00  0.00  0.00  0.00  0.00  0.95  0.00  0.00
  W000015081              1.00   0.05  0.00  0.00  0.00  0.00  0.00  0.95  0.00  0.00
  W000015082              1.25   0.05  0.00  0.00  0.24  0.71  0.00  0.00  0.89  0.00
  W000015083              1.00   0.05  0.00  0.00  0.95  0.00  0.00  0.00  0.90  0.00
  W000015084              1.00   0.05  0.00  0.00  0.23  0.72  0.00  0.00  0.90  0.00
  W000015085              1.00   0.05  0.00  0.00  0.23  0.72  0.00  0.00  0.00  0.00
  W000015086              1.00   0.05  0.00  0.00  0.24  0.71  0.00  0.00  0.89  0.00
  W000015087              1.00   0.05  0.00  0.00  0.95  0.00  0.00  0.00  0.90  0.00
  W000015088              2.02   0.05  0.00  0.00  0.95  0.00  0.00  0.00  0.90  0.00
  W000015089              1.22   0.05  0.00  0.00  0.23  0.72  0.00  0.00  0.90  0.00
  W000015090              1.00   0.05  0.23  0.00  0.72  0.00  0.00  0.00  0.90  0.00
  W000015091              1.00   0.05  0.00  0.00  0.00  0.00  0.00  0.95  0.00  0.00
  W000015092              1.00   0.05  0.00  0.00  0.00  0.00  0.00  0.95  0.00  0.00
  W000015093              1.00   0.05  0.00  0.00  0.00  0.00  0.00  0.95  0.00  0.00
  W000015094              1.00   0.05  0.00  0.00  0.00  0.00  0.00  0.95  0.00  0.00
  W000015095              1.00   0.05  0.00  0.00  0.95  0.00  0.00  0.00  0.50  0.00
  W000015096              1.00   0.05  0.00  0.00  0.00  0.00  0.00  0.95  0.00  0.00
  W000015097              1.00   0.05  0.00  0.00  0.00  0.00  0.00  0.95  0.00  0.00
  W000015098              1.70   0.05  0.00  0.00  0.00  0.00  0.00  0.95  0.00  0.00
  W000015099              1.00   0.05  0.00  0.00  0.00  0.00  0.00  0.95  0.00  0.00
  W000015100              1.00   0.05  0.00  0.00  0.23  0.72  0.00  0.00  0.89  0.00
  W000015101              1.00   0.05  0.00  0.00  0.95  0.00  0.00  0.00  0.89  0.00
  W000015102              1.00   0.05  0.00  0.00  0.00  0.00  0.00  0.95  0.00  0.00
  W000015103              1.00   0.05  0.00  0.00  0.25  0.70  0.00  0.00  0.89  0.00
  W000015104              1.00   0.05  0.23  0.00  0.72  0.00  0.00  0.00  0.90  0.00
  W000015105              1.00   0.05  0.00  0.00  0.00  0.00  0.00  0.95  0.00  0.00
  W000015106              1.00   0.05  0.00  0.00  0.23  0.72  0.00  0.00  0.89  0.00
  W000015107              1.00   0.05  0.00  0.00  0.23  0.72  0.00  0.00  0.89  0.00
  W000015108              1.00   0.05  0.00  0.00  0.95  0.00  0.00  0.00  0.90  0.00
  W999999999F             1.00   0.05  0.01  0.00  0.00  0.00  0.94  0.00  0.00  0.00
  W999999999H             1.54   0.05  0.00  0.00  0.00  0.00  0.00  0.95  0.00  0.00
  W999999999I             2.93   0.05  0.01  0.00  0.94  0.00  0.00  0.00  0.89  0.00
  
  
  *************************
  Conduit Surcharge Summary
  *************************
  
  ----------------------------------------------------------------------------
                                                           Hours        Hours 
                         --------- Hours Full --------   Above Full   Capacity
  Conduit                Both Ends  Upstream  Dnstream   Normal Flow   Limited
  ----------------------------------------------------------------------------
  CDT-23                      0.01      0.01      0.01      0.01         0.01
  CDT-25                      0.01      0.86      0.01      0.73         0.01
  W000001762                  0.01      0.01      0.16      0.01         0.01
  W000001771                  0.10      0.11      2.16      0.45         0.01
  W000001810                  0.01      0.01      0.16      0.01         0.01
  W000001846                  0.01      0.01      0.10      0.01         0.01
  W000001869                  0.14      0.14      0.35      0.07         0.01
  W000001873                  0.01      0.01      0.01      0.01         0.01
  W000001874                  0.01      0.01      0.01      0.01         0.01
  W000001895                  0.01      1.09      0.01      4.40         0.01
  W000001896                  0.02      0.02      0.02      0.02         0.02
  W000001897                  0.01      0.01      0.01      0.01         0.01
  W000001898                  0.01      0.01      0.01      0.01         0.01
  W000001899                  0.01      0.02      0.01      0.02         0.01
  W000001900                  0.01      0.01      0.01      0.01         0.01
  W000001901                  0.01      0.01      0.01      0.01         0.01
  W000001902                  0.01      0.01      0.01      0.01         0.01
  W000001903                  0.01      0.01      0.01      0.01         0.01
  W000001926                  0.01      0.01    106.48      0.01         0.01
  W000008446                  0.01      0.01    106.41      0.01         0.01
  W000008447                  0.86      0.86    119.91      0.01         0.01
  W000008448                  0.01      0.01     60.22      2.34         0.01
  W000008454                  3.76      5.79     94.29      2.24         0.01
  W000008455                119.92    119.92    119.92      0.01         0.01
  W000008456                  0.01      0.01    106.35      0.01         0.01
  W000008457                  0.01      0.01    106.61      0.01         0.01
  W000008458                  0.01      0.01    118.44      2.29         0.01
  W000014968                  0.01      0.01      1.09      0.01         0.01
  W999999999F                 0.01      0.01    106.53      0.01         0.01
  
  
  ***************
  Pumping Summary
  ***************
  
  ---------------------------------------------------------------------------------------------------------
                                                  Min       Avg       Max     Total     Power    % Time Off
                        Percent   Number of      Flow      Flow      Flow    Volume     Usage    Pump Curve
  Pump                 Utilized   Start-Ups       LPS       LPS       LPS  10^6 ltr     Kw-hr    Low   High
  ---------------------------------------------------------------------------------------------------------
  SPS1001                  4.06         119      0.00     12.88     42.62     0.225     17.98    0.0    0.0
  SPS1001_B                0.00           0      0.00      0.00      0.00     0.000      0.00    0.0    0.0
  SPS1002                  1.76          54      0.00     15.74     20.64     0.118      3.55    0.0    0.0
  SPS1002_B                0.00           0      0.00      0.00      0.00     0.000      0.00    0.0    0.0
  SPS1003                  2.87         177      0.00     61.42    110.50     0.759     58.44    0.0    0.3
  SPS1003_B                0.00           0      0.00      0.00      0.00     0.000      0.00    0.0    0.0
  SPS1004                  1.88          17      0.00      3.95      5.20     0.032      1.47    0.0    0.7
  SPS1004_B                0.00           0      0.00      0.00      0.00     0.000      0.00    0.0    0.0
  SPS1005                  2.55          62      0.00      7.18     14.90     0.080      3.50    0.0    0.0
  SPS1005_B                0.00           0      0.00      0.00      0.00     0.000      0.00    0.0    0.0
  SPS1006                  5.64         100      0.00      7.07     12.49     0.173      6.74    0.0    0.0
  SPS1006_B                0.00           0      0.00      0.00      0.00     0.000      0.00    0.0    0.0
  SPS1007                  1.58          50      0.00     29.00     79.00     0.195     13.20    0.0    2.5
  SPS1007_B                0.00           0      0.00      0.00      0.00     0.000      0.00    0.0    0.0
  

  Analysis begun on:  Wed Jan 02 04:57:35 2019
  Analysis ended on:  Wed Jan 02 04:57:58 2019
  Total elapsed time: 00:00:23