
  EPA STORM WATER MANAGEMENT MODEL - VERSION 5.1 (Build 5.1.012)
  --------------------------------------------------------------

  Scenario Run :  BASE 
  
  
  *********************************************************
  NOTE: The summary statistics displayed in this report are
  based on results found at every computational time step,  
  not just on results from each reporting time step.
  *********************************************************
  
  ****************
  Analysis Options
  ****************
  Flow Units ............... LPS
  Process Models:
    Rainfall/Runoff ........ NO
    RDII ................... NO
    Snowmelt ............... NO
    Groundwater ............ NO
    Flow Routing ........... YES
    Ponding Allowed ........ NO
    Water Quality .......... NO
  Flow Routing Method ...... DYNWAVE
  Starting Date ............ 07/24/2012 00:00:00
  Ending Date .............. 07/24/2012 03:00:00
  Antecedent Dry Days ...... 0.0
  Report Time Step ......... 00:01:00
  Routing Time Step ........ 1.00 sec
  Variable Time Step ....... YES
  Maximum Trials ........... 8
  Number of Threads ........ 1
  Head Tolerance ........... 0.000020 m
  
  
  **************************        Volume        Volume
  Flow Routing Continuity        hectare-m      10^6 ltr
  **************************     ---------     ---------
  Dry Weather Inflow .......         0.000         0.000
  Wet Weather Inflow .......         0.000         0.000
  Groundwater Inflow .......         0.000         0.000
  RDII Inflow ..............         0.000         0.000
  External Inflow ..........         0.011         0.108
  External Outflow .........         0.000         0.000
  Flooding Loss ............         0.000         0.000
  Evaporation Loss .........         0.000         0.000
  Exfiltration Loss ........         0.000         0.000
  Initial Stored Volume ....         0.004         0.041
  Final Stored Volume ......         0.016         0.160
  Continuity Error (%) .....        -7.586
  
  
  *************************
  Highest Continuity Errors
  *************************
  Node 8 (100.00%)
  
  
  ***************************
  Time-Step Critical Elements
  ***************************
  None
  
  
  ********************************
  Highest Flow Instability Indexes
  ********************************
  All links are stable.
  
  
  *************************
  Routing Time Step Summary
  *************************
  Minimum Time Step           :     0.50 sec
  Average Time Step           :     1.00 sec
  Maximum Time Step           :     1.00 sec
  Percent in Steady State     :     0.00
  Average Iterations per Step :     2.00
  Percent Not Converging      :     0.00
  
  
  ******************
  Node Depth Summary
  ******************
  
  ---------------------------------------------------------------------------------
                                 Average  Maximum  Maximum  Time of Max    Reported
                                   Depth    Depth      HGL   Occurrence   Max Depth
  Node                 Type       Meters   Meters   Meters  days hr:min      Meters
  ---------------------------------------------------------------------------------
  1.11                 JUNCTION     0.00     0.00    16.69     0  00:00        0.00
  1.2                  JUNCTION     0.00     0.00    13.22     0  00:00        0.00
  1.3                  JUNCTION     0.00     0.00    13.85     0  00:00        0.00
  2                    JUNCTION     0.00     0.00    16.48     0  00:00        0.00
  7                    JUNCTION     0.00     0.00     0.00     0  00:00        0.00
  8                    JUNCTION     0.16     0.27    12.82     0  02:56        0.27
  1                    OUTFALL      0.00     0.00    13.00     0  00:00        0.00
  PSOUT                STORAGE      1.80     2.10    14.65     0  00:39        2.10
  
  
  *******************
  Node Inflow Summary
  *******************
  
  -------------------------------------------------------------------------------------------------
                                  Maximum  Maximum                  Lateral       Total        Flow
                                  Lateral    Total  Time of Max      Inflow      Inflow     Balance
                                   Inflow   Inflow   Occurrence      Volume      Volume       Error
  Node                 Type           LPS      LPS  days hr:min    10^6 ltr    10^6 ltr     Percent
  -------------------------------------------------------------------------------------------------
  1.11                 JUNCTION      0.00     0.00     0  00:00           0           0       0.000 ltr
  1.2                  JUNCTION      0.00     0.00     0  00:00           0           0       0.000 ltr
  1.3                  JUNCTION      0.00     0.00     0  00:00           0           0       0.000 ltr
  2                    JUNCTION      0.00     0.00     0  00:00           0           0       0.000 ltr
  7                    JUNCTION      0.00     0.00     0  00:00           0           0       0.000 ltr
  8                    JUNCTION      0.00    20.00     0  00:00           0       0.118  117775.000 ltr
  1                    OUTFALL       0.00     0.00     0  00:00           0           0       0.000 ltr
  PSOUT                STORAGE      10.00    10.00     0  00:00       0.108       0.149      -0.001
  
  
  **********************
  Node Surcharge Summary
  **********************
  
  Surcharging occurs when water rises above the top of the highest conduit.
  ---------------------------------------------------------------------
                                               Max. Height   Min. Depth
                                   Hours       Above Crown    Below Rim
  Node                 Type      Surcharged         Meters       Meters
  ---------------------------------------------------------------------
  7                    JUNCTION        3.00          0.000        0.000
  
  
  *********************
  Node Flooding Summary
  *********************
  
  No nodes were flooded.
  
  
  **********************
  Storage Volume Summary
  **********************
  
  --------------------------------------------------------------------------------------------------
                         Average     Avg  Evap Exfil       Maximum     Max    Time of Max    Maximum
                          Volume    Pcnt  Pcnt  Pcnt        Volume    Pcnt     Occurrence    Outflow
  Storage Unit           1000 m3    Full  Loss  Loss       1000 m3    Full    days hr:min        LPS
  --------------------------------------------------------------------------------------------------
  PSOUT                    0.035      24     0     0         0.041      28       0  00:39      20.00
  
  
  ***********************
  Outfall Loading Summary
  ***********************
  
  -----------------------------------------------------------
                         Flow       Avg       Max       Total
                         Freq      Flow      Flow      Volume
  Outfall Node           Pcnt       LPS       LPS    10^6 ltr
  -----------------------------------------------------------
  1                      0.00      0.00      0.00       0.000
  -----------------------------------------------------------
  System                 0.00      0.00      0.00       0.000
  
  
  ********************
  Link Flow Summary
  ********************
  
  -----------------------------------------------------------------------------
                                 Maximum  Time of Max   Maximum    Max/    Max/
                                  |Flow|   Occurrence   |Veloc|    Full    Full
  Link                 Type          LPS  days hr:min     m/sec    Flow   Depth
  -----------------------------------------------------------------------------
  ENDRISING            CONDUIT      0.00     0  00:00      0.00    0.00    0.00
  GRAVITY1             CONDUIT      0.00     0  00:00      0.00    0.00    0.00
  GRAVITY2             CONDUIT      0.00     0  00:00      0.00    0.00    0.00
  RISING               CONDUIT      0.00     0  00:00      0.00    0.00    0.34
  PS                   PUMP        20.00     0  00:00              1.00
  ORIFICE              ORIFICE      0.00     0  00:00                          
  
  
  ***************************
  Flow Classification Summary
  ***************************
  
  -------------------------------------------------------------------------------------
                      Adjusted    ---------- Fraction of Time in Flow Class ---------- 
                       /Actual         Up    Down  Sub   Sup   Up    Down  Norm  Inlet 
  Conduit               Length    Dry  Dry   Dry   Crit  Crit  Crit  Crit  Ltd   Ctrl  
  -------------------------------------------------------------------------------------
  ENDRISING               1.00   1.00  0.00  0.00  0.00  0.00  0.00  0.00  0.00  0.00
  GRAVITY1                1.00   1.00  0.00  0.00  0.00  0.00  0.00  0.00  0.00  0.00
  GRAVITY2                1.00   1.00  0.00  0.00  0.00  0.00  0.00  0.00  0.00  0.00
  RISING                  1.00   0.00  1.00  0.00  0.00  0.00  0.00  0.00  0.00  0.00
  
  
  *************************
  Conduit Surcharge Summary
  *************************
  
  No conduits were surcharged.
  
  
  ***************
  Pumping Summary
  ***************
  
  ---------------------------------------------------------------------------------------------------------
                                                  Min       Avg       Max     Total     Power    % Time Off
                        Percent   Number of      Flow      Flow      Flow    Volume     Usage    Pump Curve
  Pump                 Utilized   Start-Ups       LPS       LPS       LPS  10^6 ltr     Kw-hr    Low   High
  ---------------------------------------------------------------------------------------------------------
  PS                      54.52           5      0.00     20.00     20.00     0.118      0.53    0.0    0.0
  

  Analysis begun on:  Wed Jan 02 04:57:34 2019
  Analysis ended on:  Wed Jan 02 04:57:35 2019
  Total elapsed time: 00:00:01