
  EPA STORM WATER MANAGEMENT MODEL - VERSION 5.1 (Build 5.1.012)
  --------------------------------------------------------------

  
  ERROR 209: undefined object WOODLANDHILLS at line 555 of [INFLOW] section:
  WOODLANDHILLS	FLOW	""	FLOW  1.0	1.000000

  
  ERROR 205: invalid keyword AVERAGES at line 1195 of [REPORT] section:
  AVERAGES NO


  Analysis begun on:  Wed Jan 02 04:58:00 2019
  Analysis ended on:  Wed Jan 02 04:58:00 2019
  Total elapsed time: < 1 sec