
  EPA STORM WATER MANAGEMENT MODEL - VERSION 5.1 (Build 5.1.012)
  --------------------------------------------------------------

  
  *********************************************************
  NOTE: The summary statistics displayed in this report are
  based on results found at every computational time step,  
  not just on results from each reporting time step.
  *********************************************************
  
  ****************
  Analysis Options
  ****************
  Flow Units ............... LPS
  Process Models:
    Rainfall/Runoff ........ NO
    RDII ................... NO
    Snowmelt ............... NO
    Groundwater ............ NO
    Flow Routing ........... YES
    Ponding Allowed ........ YES
    Water Quality .......... NO
  Flow Routing Method ...... KINWAVE
  Starting Date ............ 01/01/2002 00:00:00
  Ending Date .............. 01/01/2002 23:00:00
  Antecedent Dry Days ...... 0.0
  Report Time Step ......... 00:15:00
  Routing Time Step ........ 30.00 sec
  
  
  **************************        Volume        Volume
  Flow Routing Continuity        hectare-m      10^6 ltr
  **************************     ---------     ---------
  Dry Weather Inflow .......         1.137        11.373
  Wet Weather Inflow .......         0.000         0.000
  Groundwater Inflow .......         0.000         0.000
  RDII Inflow ..............         0.000         0.000
  External Inflow ..........         0.000         0.000
  External Outflow .........         0.915         9.152
  Flooding Loss ............         0.212         2.115
  Evaporation Loss .........         0.000         0.000
  Exfiltration Loss ........         0.000         0.000
  Initial Stored Volume ....         0.000         0.000
  Final Stored Volume ......         0.011         0.113
  Continuity Error (%) .....        -0.065
  
  
  ********************************
  Highest Flow Instability Indexes
  ********************************
  Link 17 (2)
  Link 19 (2)
  Link 21 (1)
  Link 25 (1)
  Link 23 (1)
  
  
  *************************
  Routing Time Step Summary
  *************************
  Minimum Time Step           :    30.00 sec
  Average Time Step           :    30.00 sec
  Maximum Time Step           :    30.00 sec
  Percent in Steady State     :     0.00
  Average Iterations per Step :     1.21
  Percent Not Converging      :     0.00
  
  
  ******************
  Node Depth Summary
  ******************
  
  ---------------------------------------------------------------------------------
                                 Average  Maximum  Maximum  Time of Max    Reported
                                   Depth    Depth      HGL   Occurrence   Max Depth
  Node                 Type       Meters   Meters   Meters  days hr:min      Meters
  ---------------------------------------------------------------------------------
  MH143                JUNCTION     1.83     2.42   118.39     0  06:00        2.42
  MH144                JUNCTION     0.24     0.26   115.82     0  06:01        0.26
  MH145                JUNCTION     0.17     0.18   115.55     0  06:36        0.18
  MH153                JUNCTION     0.18     0.19   115.38     0  06:41        0.19
  MH154                JUNCTION     0.20     0.20   115.06     0  06:49        0.20
  MH157                JUNCTION     0.23     0.23   114.94     0  06:52        0.23
  MH158                JUNCTION     0.18     0.19   114.83     0  06:53        0.19
  MH159                JUNCTION     3.84     5.18   119.67     0  06:16        5.18
  MH164                JUNCTION     0.29     0.31   114.77     0  07:03        0.31
  MH165                JUNCTION     0.21     0.22   114.63     0  07:04        0.22
  MH167                JUNCTION     0.20     0.21   114.46     0  07:05        0.21
  MH171                JUNCTION     0.20     0.21   114.29     0  07:07        0.21
  MH182                JUNCTION     0.19     0.20   114.05     0  07:09        0.20
  MH186                JUNCTION     0.26     0.26   113.82     0  07:09        0.26
  MH187                JUNCTION     0.26     0.26   113.57     0  07:13        0.26
  MH217                JUNCTION     1.53     1.53   113.20     0  07:15        1.53
  MH218                JUNCTION     0.21     0.21   111.43     0  07:16        0.21
  MH222                JUNCTION     0.22     0.23   111.21     0  07:16        0.23
  MH224                JUNCTION     0.23     0.24   110.72     0  07:17        0.24
  MH235                JUNCTION     1.58     1.59   110.19     0  07:16        1.59
  OUTLET               OUTFALL      0.21     0.21   108.77     0  07:17        0.21
  
  
  *******************
  Node Inflow Summary
  *******************
  
  -------------------------------------------------------------------------------------------------
                                  Maximum  Maximum                  Lateral       Total        Flow
                                  Lateral    Total  Time of Max      Inflow      Inflow     Balance
                                   Inflow   Inflow   Occurrence      Volume      Volume       Error
  Node                 Type           LPS      LPS  days hr:min    10^6 ltr    10^6 ltr     Percent
  -------------------------------------------------------------------------------------------------
  MH143                JUNCTION     88.00    88.00     0  07:00         4.6         4.6       0.004
  MH144                JUNCTION      0.30    32.95     0  06:01      0.0248        2.51       0.000
  MH145                JUNCTION      0.80    33.75     0  06:36      0.0662        2.58       0.000
  MH153                JUNCTION      4.20    37.95     0  06:41       0.348        2.92       0.000
  MH154                JUNCTION      1.00    38.95     0  06:49      0.0828           3       0.000
  MH157                JUNCTION      0.70    39.65     0  06:52       0.058        3.05       0.000
  MH158                JUNCTION      0.70    40.35     0  06:53       0.058         3.1       0.000
  MH159                JUNCTION      0.10    40.45     0  06:52     0.00828        3.11       0.000
  MH164                JUNCTION      1.70    42.10     0  07:03       0.141        3.24       0.000
  MH165                JUNCTION      0.40    42.50     0  07:04      0.0331        3.27       0.000
  MH167                JUNCTION      1.20    43.70     0  07:05      0.0994        3.37       0.000
  MH171                JUNCTION      3.90    47.60     0  07:07       0.323        3.68       0.000
  MH182                JUNCTION      6.40    54.00     0  07:09        0.53        4.21       0.000
  MH186                JUNCTION     39.10    93.10     0  07:09        3.24        7.44       0.000
  MH187                JUNCTION      0.60    93.70     0  07:13      0.0497        7.48       0.000
  MH217                JUNCTION     11.60   105.30     0  07:15        0.96        8.42       0.000
  MH218                JUNCTION      0.30   105.60     0  07:16      0.0248        8.44       0.000
  MH222                JUNCTION      2.40   108.00     0  07:16       0.199        8.64       0.000
  MH224                JUNCTION      1.60   109.60     0  07:17       0.132        8.76       0.000
  MH235                JUNCTION      4.80   114.40     0  07:17       0.397        9.15       0.000
  OUTLET               OUTFALL       0.00   114.40     0  07:17           0        9.15       0.000
  
  
  *********************
  Node Flooding Summary
  *********************
  
  Flooding refers to all water that overflows a node, whether it ponds or not.
  --------------------------------------------------------------------------
                                                             Total   Maximum
                                 Maximum   Time of Max       Flood    Ponded
                        Hours       Rate    Occurrence      Volume    Volume
  Node                 Flooded       LPS   days hr:min    10^6 ltr   1000 m3
  --------------------------------------------------------------------------
  MH143                  17.00     55.35      0  07:01       2.108     0.000
  MH159                  16.73      0.12      0  06:53       0.007     0.000
  
  
  ***********************
  Outfall Loading Summary
  ***********************
  
  -----------------------------------------------------------
                         Flow       Avg       Max       Total
                         Freq      Flow      Flow      Volume
  Outfall Node           Pcnt       LPS       LPS    10^6 ltr
  -----------------------------------------------------------
  OUTLET               100.00    110.56    114.40       9.152
  -----------------------------------------------------------
  System               100.00    110.56    114.40       9.152
  
  
  ********************
  Link Flow Summary
  ********************
  
  -----------------------------------------------------------------------------
                                 Maximum  Time of Max   Maximum    Max/    Max/
                                  |Flow|   Occurrence   |Veloc|    Full    Full
  Link                 Type          LPS  days hr:min     m/sec    Flow   Depth
  -----------------------------------------------------------------------------
  11                   CONDUIT     32.65     0  06:01      0.83    1.00    1.00
  13                   CONDUIT     32.95     0  06:36      0.67    0.43    0.46
  15                   CONDUIT     33.75     0  06:41      0.66    0.45    0.47
  17                   CONDUIT     37.95     0  06:50      0.77    0.43    0.46
  19                   CONDUIT     38.95     0  06:52      0.63    0.58    0.55
  21                   CONDUIT     39.65     0  06:53      0.70    0.51    0.51
  23                   CONDUIT     40.35     0  06:52      0.83    0.42    0.45
  25                   CONDUIT     40.40     0  07:03      0.42    1.00    0.91
  27                   CONDUIT     42.10     0  07:04      0.63    0.66    0.59
  29                   CONDUIT     42.50     0  07:05      0.78    0.50    0.50
  31                   CONDUIT     43.70     0  07:07      0.71    0.58    0.55
  33                   CONDUIT     47.60     0  07:09      0.78    0.57    0.54
  35                   CONDUIT     54.00     0  07:09      0.90    0.56    0.53
  37                   CONDUIT     93.10     0  07:13      0.85    0.51    0.50
  39                   CONDUIT     93.70     0  07:15      0.96    0.43    0.46
  41                   CONDUIT    105.30     0  07:16      1.45    0.20    0.30
  43                   CONDUIT    105.60     0  07:16      1.21    0.26    0.35
  45                   CONDUIT    108.00     0  07:17      1.30    0.24    0.33
  47                   CONDUIT    109.60     0  07:17      1.45    0.21    0.31
  49                   CONDUIT    114.40     0  07:17      1.30    0.26    0.35
  
  
  *************************
  Conduit Surcharge Summary
  *************************
  
  ----------------------------------------------------------------------------
                                                           Hours        Hours 
                         --------- Hours Full --------   Above Full   Capacity
  Conduit                Both Ends  Upstream  Dnstream   Normal Flow   Limited
  ----------------------------------------------------------------------------
  11                         17.00     17.00     17.00     16.99        17.00
  25                         16.73     16.73     16.73     16.63        16.73
  

  Analysis begun on:  Wed Jan 02 04:57:59 2019
  Analysis ended on:  Wed Jan 02 04:57:59 2019
  Total elapsed time: < 1 sec