
  EPA STORM WATER MANAGEMENT MODEL - VERSION 5.1 (Build 5.1.012)
  --------------------------------------------------------------

  
  ERROR 361: could not open external file used for Time Series Storm-All.

  Analysis begun on:  Wed Jan 02 08:37:45 2019
  Analysis ended on:  Wed Jan 02 08:37:45 2019
  Total elapsed time: < 1 sec