
  EPA STORM WATER MANAGEMENT MODEL - VERSION 5.1 (Build 5.1.012)
  --------------------------------------------------------------

  Scenario Run :  EXPORTEDLID 
  
  WARNING 04: minimum elevation drop used for Conduit 1
  WARNING 04: minimum elevation drop used for Conduit 2
  WARNING 04: minimum elevation drop used for Conduit 3
  WARNING 04: minimum elevation drop used for Conduit 5
  WARNING 04: minimum elevation drop used for Conduit 7
  
  *********************************************************
  NOTE: The summary statistics displayed in this report are
  based on results found at every computational time step,  
  not just on results from each reporting time step.
  *********************************************************
  
  ****************
  Analysis Options
  ****************
  Flow Units ............... CFS
  Process Models:
    Rainfall/Runoff ........ YES
    RDII ................... NO
    Snowmelt ............... NO
    Groundwater ............ NO
    Flow Routing ........... YES
    Ponding Allowed ........ NO
    Water Quality .......... YES
  Infiltration Method ...... GREEN_AMPT
  Flow Routing Method ...... DYNWAVE
  Starting Date ............ 01/01/2002 00:00:00
  Ending Date .............. 01/01/2002 08:00:00
  Antecedent Dry Days ...... 5.0
  Report Time Step ......... 00:05:00
  Wet Time Step ............ 00:01:00
  Dry Time Step ............ 01:00:00
  Routing Time Step ........ 10.00 sec
  Variable Time Step ....... YES
  Maximum Trials ........... 8
  Number of Threads ........ 1
  Head Tolerance ........... 0.000100 ft
  
  
  **************************        Volume         Depth
  Runoff Quantity Continuity     acre-feet        inches
  **************************     ---------       -------
  Initial LID Storage ......         1.570         0.025
  Total Precipitation ......       178.916         2.899
  Evaporation Loss .........         0.843         0.014
  Infiltration Loss ........       155.777         2.524
  Surface Runoff ...........         3.129         0.051
  Final Storage ............        19.495         0.316
  Continuity Error (%) .....         0.689
  
  
  **************************           TSS            TP
  Runoff Quality Continuity            lbs           lbs
  **************************    ----------    ----------
  Initial Buildup ..........         0.000         0.000
  Surface Buildup ..........       616.549        24.662
  Wet Deposition ...........      2431.000        48.620
  Sweeping Removal .........         0.000         0.000
  Infiltration Loss ........      1989.429        40.276
  BMP Removal ..............       757.981        21.702
  Surface Runoff ...........        65.275         1.912
  Remaining Buildup ........        48.001         0.965
  Continuity Error (%) .....         6.132        11.499
  
  
  **************************        Volume        Volume
  Flow Routing Continuity        acre-feet      10^6 gal
  **************************     ---------     ---------
  Dry Weather Inflow .......         0.907         0.296
  Wet Weather Inflow .......         3.127         1.019
  Groundwater Inflow .......         0.000         0.000
  RDII Inflow ..............         0.000         0.000
  External Inflow ..........         0.000         0.000
  External Outflow .........         3.915         1.276
  Flooding Loss ............         0.000         0.000
  Evaporation Loss .........         0.000         0.000
  Exfiltration Loss ........         0.006         0.002
  Initial Stored Volume ....         0.000         0.000
  Final Stored Volume ......         0.047         0.015
  Continuity Error (%) .....         1.632
  
  
  **************************           TSS            TP
  Quality Routing Continuity           lbs           lbs
  **************************    ----------    ----------
  Dry Weather Inflow .......         0.000         0.000
  Wet Weather Inflow .......        65.162         1.909
  Groundwater Inflow .......         0.000         0.000
  RDII Inflow ..............         0.000         0.000
  External Inflow ..........         0.000         0.000
  External Outflow .........        64.847         1.905
  Flooding Loss ............         0.000         0.000
  Exfiltration Loss ........         0.066         0.002
  Mass Reacted .............         0.000         0.000
  Initial Stored Mass ......         0.000         0.000
  Final Stored Mass ........         0.366         0.010
  Continuity Error (%) .....        -0.180        -0.418
  
  
  *************************
  Highest Continuity Errors
  *************************
  Node D (2.57%)
  
  
  ***************************
  Time-Step Critical Elements
  ***************************
  Link 1 (12.37%)
  
  
  ********************************
  Highest Flow Instability Indexes
  ********************************
  Link 5 (6)
  Link 2 (4)
  Link 1 (3)
  Link 7 (3)
  
  
  *************************
  Routing Time Step Summary
  *************************
  Minimum Time Step           :     3.15 sec
  Average Time Step           :     9.87 sec
  Maximum Time Step           :    10.00 sec
  Percent in Steady State     :     0.00
  Average Iterations per Step :     2.29
  Percent Not Converging      :     1.44
  
  
  ***************************
  Subcatchment Runoff Summary
  ***************************
  
  --------------------------------------------------------------------------------------------------------
                            Total      Total      Total      Total      Total       Total     Peak  Runoff
                           Precip      Runon       Evap      Infil     Runoff      Runoff   Runoff   Coeff
  Subcatchment                 in         in         in         in         in    10^6 gal      CFS
  --------------------------------------------------------------------------------------------------------
  1                          2.90       0.00       0.02       2.26       0.10        0.23     6.65   0.036
  10                         2.90       0.00       0.02       2.25       0.20        0.23     5.32   0.068
  2                          2.90       0.21       0.02       2.54       0.25        0.27     6.88   0.080
  3                          2.90       0.00       0.01       2.81       0.08        0.09     4.81   0.028
  4                          2.90       0.00       0.01       2.49       0.21        0.21     8.09   0.072
  5                          2.90       0.07       0.01       2.66       0.04        0.06     2.73   0.015
  6                          2.90       0.11       0.01       2.54       0.05        0.11     4.36   0.016
  7                          2.90       0.00       0.02       2.53       0.03        0.19     4.28   0.011
  8                          2.90       0.06       0.01       2.60       0.13        0.40    14.22   0.044
  9                          2.90       0.22       0.01       2.63       0.22        0.24     7.83   0.071
  

  ***********************
  LID Performance Summary
  ***********************

  --------------------------------------------------------------------------------------------------------------------
                                         Total      Evap     Infil   Surface    Drain    Initial     Final  Continuity
                                        Inflow      Loss      Loss   Outflow   Outflow   Storage   Storage       Error
  Subcatchment      LID Control             in        in        in        in        in        in        in           %
  --------------------------------------------------------------------------------------------------------------------
  1                 GREENROOF             9.43      0.02      0.00      4.21      0.76      1.20      5.64        0.03
  1                 TRENCH               45.33      0.02      3.71     13.03     13.21      0.00      9.56       12.81
  10                TRENCH               46.41      0.02      3.70     13.93     12.99      0.00      9.64       13.22
  10                GREENROOF_2         220.47      0.03      0.00    214.48      2.14      0.90      4.73       -0.00
  2                 TRENCH                5.34      0.00      3.51      0.00      0.00      0.00      1.84       -0.07
  2                 GREENROOF_4           6.97      0.01      0.00      2.45      0.40      1.50      5.61        0.04
  4                 TRENCH                5.64      0.00      3.56      0.00      0.00      0.00      2.08       -0.06
  4                 GREENROOF_6           3.55      0.01      0.00      1.06      2.18      0.10      0.41       -0.01
  5                 GREENROOF_9           3.79      0.00      0.00      0.67      0.19      1.50      4.42        0.04
  5                 TRENCH                8.70      0.00      3.66      0.00      2.48      0.00      2.56       -0.01
  6                 GREENROOF_11         28.79      0.03      0.00     23.92      2.81      0.50      2.53       -0.00
  6                 TRENCH                7.37      0.00      3.58      0.00      1.31      0.00      2.48       -0.03
  7                 GREENROOF_13         11.07      0.02      0.00      7.00      2.68      0.30      1.66       -0.00
  7                 TRENCH               39.21      0.02      3.67      9.14     12.27      0.00      9.58       11.53
  8                 GREENROOF_15         13.66      0.03      0.00      8.44      2.13      0.70      3.77       -0.00
  8                 TRENCH                7.55      0.00      3.61      0.00      1.44      0.00      2.50       -0.02
  9                 TRENCH                8.84      0.00      3.65      0.00      2.63      0.00      2.57       -0.01
  9                 GREENROOF_16          6.34      0.01      0.00      2.22      2.19      0.50      2.42       -0.02
  
  ****************************
  Subcatchment Washoff Summary
  ****************************
  
  ------------------------------------------------
                                 TSS            TP
  Subcatchment                   lbs           lbs
  ------------------------------------------------
  1                           14.072         0.405
  10                          15.263         0.454
  2                           15.752         0.440
  3                            6.210         0.186
  4                           12.393         0.342
  5                            3.305         0.090
  6                            6.633         0.185
  7                           11.776         0.341
  8                           28.338         0.876
  9                           14.605         0.419
  ------------------------------------------------
  System                     128.348         3.738
  
  
  ******************
  Node Depth Summary
  ******************
  
  ---------------------------------------------------------------------------------
                                 Average  Maximum  Maximum  Time of Max    Reported
                                   Depth    Depth      HGL   Occurrence   Max Depth
  Node                 Type         Feet     Feet     Feet  days hr:min        Feet
  ---------------------------------------------------------------------------------
  A                    JUNCTION     1.36     2.76   252.46     0  03:38        2.75
  B                    JUNCTION     1.37     2.78   252.48     0  03:38        2.77
  C                    JUNCTION     1.37     2.78   252.48     0  03:38        2.77
  E                    JUNCTION     0.10     0.26   312.89     0  03:35        0.26
  F                    JUNCTION     1.37     2.78   252.49     0  03:38        2.77
  G                    JUNCTION     0.15     0.44   330.62     0  03:30        0.43
  OUTFALL              OUTFALL      0.72     1.83   251.53     0  03:38        1.82
  D                    STORAGE      1.37     2.78   252.48     0  03:37        2.77
  
  
  *******************
  Node Inflow Summary
  *******************
  
  -------------------------------------------------------------------------------------------------
                                  Maximum  Maximum                  Lateral       Total        Flow
                                  Lateral    Total  Time of Max      Inflow      Inflow     Balance
                                   Inflow   Inflow   Occurrence      Volume      Volume       Error
  Node                 Type           CFS      CFS  days hr:min    10^6 gal    10^6 gal     Percent
  -------------------------------------------------------------------------------------------------
  A                    JUNCTION     14.22    31.00     0  03:37       0.401        1.28       0.408
  B                    JUNCTION      0.00    19.56     0  03:38           0       0.883       0.269
  C                    JUNCTION      0.00    19.56     0  03:38           0       0.886       0.305
  E                    JUNCTION      7.44     7.44     0  03:30       0.317       0.317       0.128
  F                    JUNCTION      0.00     0.48     0  03:30           0     0.00435      38.386
  G                    JUNCTION     16.38    16.38     0  03:30       0.596       0.596       0.066
  OUTFALL              OUTFALL       0.00    30.89     0  03:38           0        1.28       0.000
  D                    STORAGE       0.00    23.41     0  03:30           0       0.915       2.641
  
  
  **********************
  Node Surcharge Summary
  **********************
  
  No nodes were surcharged.
  
  
  *********************
  Node Flooding Summary
  *********************
  
  No nodes were flooded.
  
  
  **********************
  Storage Volume Summary
  **********************
  
  --------------------------------------------------------------------------------------------------
                         Average     Avg  Evap Exfil       Maximum     Max    Time of Max    Maximum
                          Volume    Pcnt  Pcnt  Pcnt        Volume    Pcnt     Occurrence    Outflow
  Storage Unit          1000 ft3    Full  Loss  Loss      1000 ft3    Full    days hr:min        CFS
  --------------------------------------------------------------------------------------------------
  D                        0.137      27     0     0         0.278      56       0  03:37      19.57
  
  
  ***********************
  Outfall Loading Summary
  ***********************
  
  ---------------------------------------------------------------------------------------
                         Flow       Avg       Max       Total         Total         Total
                         Freq      Flow      Flow      Volume           TSS            TP
  Outfall Node           Pcnt       CFS       CFS    10^6 gal           lbs           lbs
  ---------------------------------------------------------------------------------------
  OUTFALL               99.01      6.22     30.89       1.276        64.853         1.905
  ---------------------------------------------------------------------------------------
  System                99.01      6.22     30.89       1.276        64.853         1.905
  
  
  ********************
  Link Flow Summary
  ********************
  
  -----------------------------------------------------------------------------
                                 Maximum  Time of Max   Maximum    Max/    Max/
                                  |Flow|   Occurrence   |Veloc|    Full    Full
  Link                 Type          CFS  days hr:min    ft/sec    Flow   Depth
  -----------------------------------------------------------------------------
  1                    CONDUIT     19.61     0  03:39      1.91    0.97    0.55
  2                    CONDUIT     19.56     0  03:38      2.50    0.41    0.56
  3                    CONDUIT     30.89     0  03:38      4.09    4.23    0.46
  4                    CONDUIT      7.38     0  03:35     32.91    0.00    0.30
  5                    CONDUIT      0.48     0  03:30      0.76    0.03    0.56
  6                    CONDUIT     16.19     0  03:30     27.86    0.01    0.32
  7                    CONDUIT     19.56     0  03:38      3.51    0.20    0.56
  
  
  ***************************
  Flow Classification Summary
  ***************************
  
  -------------------------------------------------------------------------------------
                      Adjusted    ---------- Fraction of Time in Flow Class ---------- 
                       /Actual         Up    Down  Sub   Sup   Up    Down  Norm  Inlet 
  Conduit               Length    Dry  Dry   Dry   Crit  Crit  Crit  Crit  Ltd   Ctrl  
  -------------------------------------------------------------------------------------
  1                       1.88   0.00  0.00  0.00  1.00  0.00  0.00  0.00  0.00  0.00
  2                      11.17   0.00  0.00  0.00  1.00  0.00  0.00  0.00  0.00  0.00
  3                       1.00   0.01  0.00  0.00  0.99  0.00  0.00  0.00  0.00  0.00
  4                       7.45   0.00  0.00  0.00  0.98  0.02  0.00  0.00  1.00  0.00
  5                       1.00   0.00  0.00  0.00  1.00  0.00  0.00  0.00  0.00  0.00
  6                       4.45   0.00  0.00  0.00  0.98  0.02  0.00  0.00  1.00  0.00
  7                      55.47   0.00  0.00  0.00  0.99  0.01  0.00  0.00  0.00  0.00
  
  
  *************************
  Conduit Surcharge Summary
  *************************
  
  ----------------------------------------------------------------------------
                                                           Hours        Hours 
                         --------- Hours Full --------   Above Full   Capacity
  Conduit                Both Ends  Upstream  Dnstream   Normal Flow   Limited
  ----------------------------------------------------------------------------
  3                           0.01      0.01      0.01      1.31         0.01
  
  
  ***************************
  Link Pollutant Load Summary
  ***************************
  
  ------------------------------------------------
                                 TSS            TP
  Link                           lbs           lbs
  ------------------------------------------------
  1                           36.702         1.035
  2                           36.756         1.036
  3                           64.853         1.905
  4                            9.891         0.274
  5                            0.255         0.007
  6                           26.943         0.759
  7                           36.766         1.036
  

  Analysis begun on:  Wed Jan 02 08:37:45 2019
  Analysis ended on:  Wed Jan 02 08:37:45 2019
  Total elapsed time: < 1 sec