
  EPA STORM WATER MANAGEMENT MODEL - VERSION 5.1 (Build 5.1.012)
  --------------------------------------------------------------

  WARNING 02: maximum depth increased for Node 7
  
  *********************************************************
  NOTE: The summary statistics displayed in this report are
  based on results found at every computational time step,  
  not just on results from each reporting time step.
  *********************************************************
  
  ****************
  Analysis Options
  ****************
  Flow Units ............... CFS
  Process Models:
    Rainfall/Runoff ........ NO
    RDII ................... NO
    Snowmelt ............... NO
    Groundwater ............ NO
    Flow Routing ........... YES
    Ponding Allowed ........ NO
    Water Quality .......... NO
  Flow Routing Method ...... DYNWAVE
  Starting Date ............ 04/18/2014 00:00:00
  Ending Date .............. 04/18/2014 04:00:00
  Antecedent Dry Days ...... 0.0
  Report Time Step ......... 00:01:00
  Routing Time Step ........ 10.00 sec
  Variable Time Step ....... NO
  Maximum Trials ........... 8
  Number of Threads ........ 1
  Head Tolerance ........... 0.005000 ft
  
  
  **************************        Volume        Volume
  Flow Routing Continuity        acre-feet      10^6 gal
  **************************     ---------     ---------
  Dry Weather Inflow .......         0.000         0.000
  Wet Weather Inflow .......         0.000         0.000
  Groundwater Inflow .......         0.000         0.000
  RDII Inflow ..............         0.000         0.000
  External Inflow ..........         0.248         0.081
  External Outflow .........         0.248         0.081
  Flooding Loss ............         0.000         0.000
  Evaporation Loss .........         0.000         0.000
  Exfiltration Loss ........         0.000         0.000
  Initial Stored Volume ....         0.000         0.000
  Final Stored Volume ......         0.000         0.000
  Continuity Error (%) .....        -0.013
  
  
  ********************************
  Highest Flow Instability Indexes
  ********************************
  All links are stable.
  
  
  *************************
  Routing Time Step Summary
  *************************
  Minimum Time Step           :     9.00 sec
  Average Time Step           :    10.00 sec
  Maximum Time Step           :    10.00 sec
  Percent in Steady State     :     0.00
  Average Iterations per Step :     2.11
  Percent Not Converging      :     1.11
  
  
  ******************
  Node Depth Summary
  ******************
  
  ---------------------------------------------------------------------------------
                                 Average  Maximum  Maximum  Time of Max    Reported
                                   Depth    Depth      HGL   Occurrence   Max Depth
  Node                 Type         Feet     Feet     Feet  days hr:min        Feet
  ---------------------------------------------------------------------------------
  1                    JUNCTION     0.12     0.76   110.76     0  01:02        0.76
  2                    JUNCTION     1.86    10.75   110.75     0  01:02       10.75
  3                    JUNCTION     0.15     0.45    96.45     0  00:41        0.45
  4                    JUNCTION     0.16     0.45    94.45     0  01:04        0.45
  6                    JUNCTION     0.07     0.25   110.25     0  00:38        0.25
  7                    JUNCTION     1.10     4.73   104.73     0  01:10        4.73
  8                    JUNCTION     0.16     0.38    96.38     0  01:11        0.38
  9                    JUNCTION     0.17     0.38    94.38     0  01:12        0.38
  11                   JUNCTION     0.00     0.00   110.00     0  00:00        0.00
  12                   JUNCTION     0.00     0.00   100.00     0  00:00        0.00
  5                    OUTFALL      0.15     0.45    92.45     0  01:05        0.45
  10                   OUTFALL      0.16     0.38    92.38     0  01:12        0.38
  13                   OUTFALL      0.00     0.00    95.00     0  00:00        0.00
  
  
  *******************
  Node Inflow Summary
  *******************
  
  -------------------------------------------------------------------------------------------------
                                  Maximum  Maximum                  Lateral       Total        Flow
                                  Lateral    Total  Time of Max      Inflow      Inflow     Balance
                                   Inflow   Inflow   Occurrence      Volume      Volume       Error
  Node                 Type           CFS      CFS  days hr:min    10^6 gal    10^6 gal     Percent
  -------------------------------------------------------------------------------------------------
  1                    JUNCTION      1.50     1.50     0  00:30      0.0404      0.0404      -0.409
  2                    JUNCTION      0.00     1.50     0  00:38           0      0.0406       0.386
  3                    JUNCTION      0.00     1.37     0  01:03           0      0.0404      -0.034
  4                    JUNCTION      0.00     1.37     0  01:03           0      0.0404       0.068
  6                    JUNCTION      1.50     1.50     0  00:30      0.0404      0.0404      -0.440
  7                    JUNCTION      0.00     1.50     0  00:38           0      0.0406       0.380
  8                    JUNCTION      0.00     1.02     0  01:10           0      0.0404      -0.029
  9                    JUNCTION      0.00     1.02     0  01:11           0      0.0404       0.063
  11                   JUNCTION      0.00     0.00     0  00:00           0           0       0.000 gal
  12                   JUNCTION      0.00     0.00     0  00:00           0           0       0.000 gal
  5                    OUTFALL       0.00     1.37     0  01:05           0      0.0404       0.000
  10                   OUTFALL       0.00     1.02     0  01:12           0      0.0404       0.000
  13                   OUTFALL       0.00     0.00     0  00:00           0           0       0.000 gal
  
  
  **********************
  Node Surcharge Summary
  **********************
  
  Surcharging occurs when water rises above the top of the highest conduit.
  ---------------------------------------------------------------------
                                               Max. Height   Min. Depth
                                   Hours       Above Crown    Below Rim
  Node                 Type      Surcharged           Feet         Feet
  ---------------------------------------------------------------------
  2                    JUNCTION        0.66          8.754        9.246
  
  
  *********************
  Node Flooding Summary
  *********************
  
  No nodes were flooded.
  
  
  ***********************
  Outfall Loading Summary
  ***********************
  
  -----------------------------------------------------------
                         Flow       Avg       Max       Total
                         Freq      Flow      Flow      Volume
  Outfall Node           Pcnt       CFS       CFS    10^6 gal
  -----------------------------------------------------------
  5                     62.36      0.60      1.37       0.040
  10                    68.40      0.55      1.02       0.040
  13                     0.00      0.00      0.00       0.000
  -----------------------------------------------------------
  System                43.59      1.15      2.38       0.081
  
  
  ********************
  Link Flow Summary
  ********************
  
  -----------------------------------------------------------------------------
                                 Maximum  Time of Max   Maximum    Max/    Max/
                                  |Flow|   Occurrence   |Veloc|    Full    Full
  Link                 Type          CFS  days hr:min    ft/sec    Flow   Depth
  -----------------------------------------------------------------------------
  1                    CONDUIT      1.50     0  00:38      3.76    0.03    0.69
  2                    CONDUIT      1.37     0  01:03      7.13    1.87    0.95
  3                    CONDUIT      1.37     0  01:03      4.10    0.42    0.45
  4                    CONDUIT      1.37     0  01:05      3.98    0.42    0.45
  5                    CONDUIT      1.50     0  00:38      3.76    0.03    0.56
  6                    CONDUIT      1.02     0  01:10      5.55    1.40    0.88
  7                    CONDUIT      1.02     0  01:11      3.68    0.31    0.38
  8                    CONDUIT      1.02     0  01:12      3.68    0.31    0.38
  9                    CONDUIT      0.00     0  00:00      0.00    0.00    0.00
  10                   CONDUIT      0.00     0  00:00      0.00    0.00    0.00
  11                   CONDUIT      0.00     0  00:00      0.00    0.00    0.00
  
  
  ***************************
  Flow Classification Summary
  ***************************
  
  -------------------------------------------------------------------------------------
                      Adjusted    ---------- Fraction of Time in Flow Class ---------- 
                       /Actual         Up    Down  Sub   Sup   Up    Down  Norm  Inlet 
  Conduit               Length    Dry  Dry   Dry   Crit  Crit  Crit  Crit  Ltd   Ctrl  
  -------------------------------------------------------------------------------------
  1                       1.00   0.00  0.49  0.00  0.43  0.08  0.00  0.00  0.84  0.00
  2                       1.00   0.00  0.00  0.00  0.56  0.44  0.00  0.00  0.59  0.00
  3                       1.00   0.00  0.01  0.00  0.57  0.41  0.00  0.00  0.75  0.00
  4                       1.00   0.01  0.00  0.00  0.23  0.76  0.00  0.00  0.20  0.00
  5                       1.00   0.00  0.44  0.00  0.48  0.08  0.00  0.00  0.98  0.00
  6                       1.00   0.00  0.00  0.00  0.50  0.50  0.00  0.00  0.53  0.00
  7                       1.00   0.00  0.00  0.00  0.53  0.47  0.00  0.00  0.71  0.00
  8                       1.00   0.01  0.00  0.00  0.17  0.82  0.00  0.00  0.25  0.00
  9                       1.00   1.00  0.00  0.00  0.00  0.00  0.00  0.00  0.00  0.00
  10                      1.00   1.00  0.00  0.00  0.00  0.00  0.00  0.00  0.00  0.00
  11                      1.00   1.00  0.00  0.00  0.00  0.00  0.00  0.00  0.00  0.00
  
  
  *************************
  Conduit Surcharge Summary
  *************************
  
  ----------------------------------------------------------------------------
                                                           Hours        Hours 
                         --------- Hours Full --------   Above Full   Capacity
  Conduit                Both Ends  Upstream  Dnstream   Normal Flow   Limited
  ----------------------------------------------------------------------------
  1                           0.01      0.01      0.66      0.01         0.01
  2                           0.01      1.28      0.01      1.14         0.01
  5                           0.01      0.01      1.00      0.01         0.01
  6                           0.01      1.52      0.01      1.39         0.01
  

  Analysis begun on:  Wed Jan 02 04:58:01 2019
  Analysis ended on:  Wed Jan 02 04:58:01 2019
  Total elapsed time: < 1 sec