
  EPA STORM WATER MANAGEMENT MODEL - VERSION 5.1 (Build 5.1.012)
  --------------------------------------------------------------

  WARNING 07: routing time step reduced to the wet weather time step 
  
  *************
  Element Count
  *************
  Number of rain gages ...... 0
  Number of subcatchments ... 0
  Number of nodes ........... 8
  Number of links ........... 6
  Number of pollutants ...... 0
  Number of land uses ....... 0
  
  
  ************
  Node Summary
  ************
                                           Invert      Max.    Ponded    External
  Name                 Type                 Elev.     Depth      Area    Inflow  
  -------------------------------------------------------------------------------
  1                    JUNCTION            102.00      8.00       0.0    Yes
  3                    JUNCTION            100.50      4.50       0.0
  11                   JUNCTION            102.00      8.00       0.0    Yes
  33                   JUNCTION            100.50      4.50       0.0
  Out1                 OUTFALL             100.00      1.00       0.0
  Out2                 OUTFALL             100.00      1.00       0.0
  2                    STORAGE             101.00      9.00       0.0
  22                   STORAGE             101.00      9.00       0.0
  
  
  ************
  Link Summary
  ************
  Name             From Node        To Node          Type            Length    %Slope Roughness
  ---------------------------------------------------------------------------------------------
  1                1                2                CONDUIT          400.0    0.2500    0.0130
  3                3                Out1             CONDUIT          400.0    0.1250    0.0130
  11               11               22               CONDUIT          400.0    0.2500    0.0130
  33               33               Out2             CONDUIT          400.0    0.1250    0.0130
  OLrifice         22               33               ORIFICE     
  SideFlowWeir     2                3                WEIR        
  
  
  *********************
  Cross Section Summary
  *********************
                                        Full     Full     Hyd.     Max.   No. of     Full
  Conduit          Shape               Depth     Area     Rad.    Width  Barrels     Flow
  ---------------------------------------------------------------------------------------
  1                CIRCULAR             1.00     0.79     0.25     1.00        1  1198.86
  3                CIRCULAR             1.00     0.79     0.25     1.00        1   847.72
  11               CIRCULAR             1.00     0.79     0.25     1.00        1  1198.86
  33               CIRCULAR             1.00     0.79     0.25     1.00        1   847.72
  
  
  
  *********************************************************
  NOTE: The summary statistics displayed in this report are
  based on results found at every computational time step,  
  not just on results from each reporting time step.
  *********************************************************
  
  ****************
  Analysis Options
  ****************
  Flow Units ............... LPS
  Process Models:
    Rainfall/Runoff ........ NO
    RDII ................... NO
    Snowmelt ............... NO
    Groundwater ............ NO
    Flow Routing ........... YES
    Ponding Allowed ........ NO
    Water Quality .......... NO
  Flow Routing Method ...... DYNWAVE
  Starting Date ............ 04/27/2014 00:00:00
  Ending Date .............. 04/27/2014 06:00:00
  Antecedent Dry Days ...... 0.0
  Report Time Step ......... 00:01:00
  Routing Time Step ........ 10.00 sec
  Variable Time Step ....... YES
  Maximum Trials ........... 20
  Number of Threads ........ 1
  Head Tolerance ........... 0.000010 m
  
  
  **************************        Volume        Volume
  Flow Routing Continuity        hectare-m      10^6 ltr
  **************************     ---------     ---------
  Dry Weather Inflow .......         0.000         0.000
  Wet Weather Inflow .......         0.000         0.000
  Groundwater Inflow .......         0.000         0.000
  RDII Inflow ..............         0.000         0.000
  External Inflow ..........        19.790       197.901
  External Outflow .........        10.042       100.416
  Flooding Loss ............         9.556        95.559
  Evaporation Loss .........         0.000         0.000
  Exfiltration Loss ........         0.000         0.000
  Initial Stored Volume ....         0.000         0.000
  Final Stored Volume ......         0.126         1.256
  Continuity Error (%) .....         0.338
  
  
  ***************************
  Time-Step Critical Elements
  ***************************
  None
  
  
  ********************************
  Highest Flow Instability Indexes
  ********************************
  All links are stable.
  
  
  *************************
  Routing Time Step Summary
  *************************
  Minimum Time Step           :     9.50 sec
  Average Time Step           :    10.00 sec
  Maximum Time Step           :    10.00 sec
  Percent in Steady State     :     0.00
  Average Iterations per Step :     3.50
  Percent Not Converging      :     2.41
  
  
  ******************
  Node Depth Summary
  ******************
  
  ---------------------------------------------------------------------------------
                                 Average  Maximum  Maximum  Time of Max    Reported
                                   Depth    Depth      HGL   Occurrence   Max Depth
  Node                 Type       Meters   Meters   Meters  days hr:min      Meters
  ---------------------------------------------------------------------------------
  1                    JUNCTION     7.50     8.00   110.00     0  00:32        8.00
  3                    JUNCTION     4.21     4.50   105.00     0  00:34        4.50
  11                   JUNCTION     7.50     8.00   110.00     0  00:32        8.00
  33                   JUNCTION     4.19     4.50   105.00     0  00:41        4.50
  Out1                 OUTFALL      0.84     0.88   100.88     0  00:43        0.88
  Out2                 OUTFALL      0.84     0.88   100.88     0  00:48        0.88
  2                    STORAGE      4.10     4.36   105.36     0  00:36        4.36
  22                   STORAGE      4.45     4.74   105.74     0  00:57        4.74
  
  
  *******************
  Node Inflow Summary
  *******************
  
  -------------------------------------------------------------------------------------------------
                                  Maximum  Maximum                  Lateral       Total        Flow
                                  Lateral    Total  Time of Max      Inflow      Inflow     Balance
                                   Inflow   Inflow   Occurrence      Volume      Volume       Error
  Node                 Type           LPS      LPS  days hr:min    10^6 ltr    10^6 ltr     Percent
  -------------------------------------------------------------------------------------------------
  1                    JUNCTION   5000.00  5000.00     0  01:00          99          99       0.161
  3                    JUNCTION      0.00  2582.97     0  00:36           0        52.8       0.538
  11                   JUNCTION   5000.00  5000.00     0  01:00          99          99       0.160
  33                   JUNCTION      0.00  2474.85     0  00:57           0        50.6       0.752
  Out1                 OUTFALL       0.00  2469.12     0  00:43           0        50.3       0.000
  Out2                 OUTFALL       0.00  2469.12     0  00:48           0        50.1       0.000
  2                    STORAGE       0.00  2685.01     0  00:32           0        53.2       0.852
  22                   STORAGE       0.00  2661.22     0  00:32           0        51.1       0.950
  
  
  **********************
  Node Surcharge Summary
  **********************
  
  Surcharging occurs when water rises above the top of the highest conduit.
  ---------------------------------------------------------------------
                                               Max. Height   Min. Depth
                                   Hours       Above Crown    Below Rim
  Node                 Type      Surcharged         Meters       Meters
  ---------------------------------------------------------------------
  1                    JUNCTION        5.76          7.000        0.000
  3                    JUNCTION        5.61          2.500        0.000
  11                   JUNCTION        5.76          7.000        0.000
  33                   JUNCTION        5.57          2.500        0.000
  
  
  *********************
  Node Flooding Summary
  *********************
  
  Flooding refers to all water that overflows a node, whether it ponds or not.
  --------------------------------------------------------------------------
                                                             Total   Maximum
                                 Maximum   Time of Max       Flood    Ponded
                        Hours       Rate    Occurrence      Volume     Depth
  Node                 Flooded       LPS   days hr:min    10^6 ltr    Meters
  --------------------------------------------------------------------------
  1                       5.46   2417.10      0  01:01      45.574     0.000
  3                       5.42    113.85      0  00:36       2.219     0.000
  11                      5.47   2525.15      0  01:00      47.681     0.000
  33                      5.31      5.73      0  00:57       0.109     0.000
  
  
  **********************
  Storage Volume Summary
  **********************
  
  --------------------------------------------------------------------------------------------------
                         Average     Avg  Evap Exfil       Maximum     Max    Time of Max    Maximum
                          Volume    Pcnt  Pcnt  Pcnt        Volume    Pcnt     Occurrence    Outflow
  Storage Unit           1000 m3    Full  Loss  Loss       1000 m3    Full    days hr:min        LPS
  --------------------------------------------------------------------------------------------------
  2                        0.008      46     0     0         0.009      48       0  00:36    2582.97
  22                       0.009      49     0     0         0.009      53       0  00:57    2474.85
  
  
  ***********************
  Outfall Loading Summary
  ***********************
  
  -----------------------------------------------------------
                         Flow       Avg       Max       Total
                         Freq      Flow      Flow      Volume
  Outfall Node           Pcnt       LPS       LPS    10^6 ltr
  -----------------------------------------------------------
  Out1                  97.08   2396.74   2469.12      50.270
  Out2                  97.08   2390.81   2469.12      50.146
  -----------------------------------------------------------
  System                97.08   4787.55   4938.24     100.416
  
  
  ********************
  Link Flow Summary
  ********************
  
  -----------------------------------------------------------------------------
                                 Maximum  Time of Max   Maximum    Max/    Max/
                                  |Flow|   Occurrence   |Veloc|    Full    Full
  Link                 Type          LPS  days hr:min     m/sec    Flow   Depth
  -----------------------------------------------------------------------------
  1                    CONDUIT   2685.01     0  00:32      3.42    2.24    1.00
  3                    CONDUIT   2469.12     0  00:43      3.22    2.91    0.94
  11                   CONDUIT   2661.22     0  00:32      3.39    2.22    1.00
  33                   CONDUIT   2469.12     0  00:48      3.22    2.91    0.94
  OLrifice             ORIFICE   2474.85     0  00:57                      1.00
  SideFlowWeir         WEIR      2582.97     0  00:36                      1.00
  
  
  ***************************
  Flow Classification Summary
  ***************************
  
  -------------------------------------------------------------------------------------
                      Adjusted    ---------- Fraction of Time in Flow Class ---------- 
                       /Actual         Up    Down  Sub   Sup   Up    Down  Norm  Inlet 
  Conduit               Length    Dry  Dry   Dry   Crit  Crit  Crit  Crit  Ltd   Ctrl  
  -------------------------------------------------------------------------------------
  1                       1.00   0.00  0.00  0.00  0.98  0.02  0.00  0.00  0.01  0.00
  3                       1.00   0.03  0.00  0.00  0.97  0.00  0.00  0.00  0.00  0.00
  11                      1.00   0.00  0.00  0.00  0.98  0.02  0.00  0.00  0.01  0.00
  33                      1.00   0.03  0.00  0.00  0.97  0.00  0.00  0.00  0.00  0.00
  
  
  *************************
  Conduit Surcharge Summary
  *************************
  
  ----------------------------------------------------------------------------
                                                           Hours        Hours 
                         --------- Hours Full --------   Above Full   Capacity
  Conduit                Both Ends  Upstream  Dnstream   Normal Flow   Limited
  ----------------------------------------------------------------------------
  1                           5.76      5.76      5.83      5.76         5.76
  3                           0.01      5.71      0.01      5.73         0.01
  11                          5.76      5.76      5.83      5.76         5.76
  33                          0.01      5.71      0.01      5.73         0.01
  

  Analysis begun on:  Wed Jan 02 04:58:00 2019
  Analysis ended on:  Wed Jan 02 04:58:00 2019
  Total elapsed time: < 1 sec