
  EPA STORM WATER MANAGEMENT MODEL - VERSION 5.1 (Build 5.1.012)
  --------------------------------------------------------------

  WARNING 04: minimum elevation drop used for Conduit C45
  WARNING 04: minimum elevation drop used for Conduit C46
  
  *********************
  Rainfall File Summary
  *********************
  Station    First        Last         Recording   Periods    Periods    Periods
  ID         Date         Date         Frequency  w/Precip    Missing    Malfunc.
  -------------------------------------------------------------------------------
  STA01      01/01/1992   12/22/2016    1440 min      1922          0          0

  
  *********************************************************
  NOTE: The summary statistics displayed in this report are
  based on results found at every computational time step,  
  not just on results from each reporting time step.
  *********************************************************
  
  ****************
  Analysis Options
  ****************
  Flow Units ............... CMS
  Process Models:
    Rainfall/Runoff ........ YES
    RDII ................... NO
    Snowmelt ............... NO
    Groundwater ............ NO
    Flow Routing ........... YES
    Ponding Allowed ........ NO
    Water Quality .......... NO
  Infiltration Method ...... MODIFIED_GREEN_AMPT
  Flow Routing Method ...... KINWAVE
  Starting Date ............ 07/06/1992 00:00:00
  Ending Date .............. 07/06/1993 06:00:00
  Antecedent Dry Days ...... 0.0
  Report Time Step ......... 00:15:00
  Wet Time Step ............ 00:05:00
  Dry Time Step ............ 01:00:00
  Routing Time Step ........ 30.00 sec
  
  
  **************************        Volume         Depth
  Runoff Quantity Continuity     hectare-m            mm
  **************************     ---------       -------
  Total Precipitation ......    536191.530    490910.891
  Evaporation Loss .........         0.000         0.000
  Infiltration Loss ........        46.303        42.392
  Surface Runoff ...........    536205.831    490923.984
  Final Storage ............        41.226        37.744
  Continuity Error (%) .....        -0.019
  
  
  **************************        Volume        Volume
  Flow Routing Continuity        hectare-m      10^6 ltr
  **************************     ---------     ---------
  Dry Weather Inflow .......         0.000         0.000
  Wet Weather Inflow .......    536195.844   5362014.342
  Groundwater Inflow .......         0.000         0.000
  RDII Inflow ..............         0.000         0.000
  External Inflow ..........         0.000         0.000
  External Outflow .........     97623.867    976248.848
  Flooding Loss ............    438740.234   4387448.087
  Evaporation Loss .........         0.000         0.000
  Exfiltration Loss ........         0.000         0.000
  Initial Stored Volume ....         0.000         0.000
  Final Stored Volume ......         0.755         7.545
  Continuity Error (%) .....        -0.032
  
  
  ********************************
  Highest Flow Instability Indexes
  ********************************
  All links are stable.
  
  
  *************************
  Routing Time Step Summary
  *************************
  Minimum Time Step           :    30.00 sec
  Average Time Step           :    30.00 sec
  Maximum Time Step           :    30.00 sec
  Percent in Steady State     :     0.00
  Average Iterations per Step :     1.03
  Percent Not Converging      :     0.00
  
  
  ***************************
  Subcatchment Runoff Summary
  ***************************
  
  --------------------------------------------------------------------------------------------------------
                            Total      Total      Total      Total      Total       Total     Peak  Runoff
                           Precip      Runon       Evap      Infil     Runoff      Runoff   Runoff   Coeff
  Subcatchment                 mm         mm         mm         mm         mm    10^6 ltr      CMS
  --------------------------------------------------------------------------------------------------------
  S3                    490910.89       0.00       0.00      35.66  490907.18   125800.61   101.80   1.000
  S4                    490910.89       0.00       0.00      40.11  490911.07   222285.83   179.88   1.000
  S5                    490910.89       0.00       0.00      53.22  490909.07    73759.52    59.69   1.000
  S6                    490910.89       0.00       0.00      22.75  490993.20    35302.62    28.56   1.000
  S7                    490910.89       0.00       0.00      30.82  490967.68    94030.68    76.09   1.000
  S9                    490910.89       0.00       0.00      44.96  490944.15    84172.87    68.11   1.000
  S10                   490910.89       0.00       0.00      62.09  490890.48    77374.61    62.62   1.000
  S11                   490910.89       0.00       0.00      39.31  490945.19    55663.69    45.04   1.000
  S20                   490910.89       0.00       0.00      23.31  490963.27    55660.83    45.04   1.000
  S22                   490910.89       0.00       0.00       0.00  490983.40   110879.43    89.72   1.000
  S23                   490910.89       0.00       0.00      83.40  490840.79   159254.23   128.89   1.000
  S24                   490910.89       0.00       0.00      43.87  490949.49    18553.09    15.01   1.000
  S25                   490910.89       0.00       0.00      35.52  490934.07    83262.91    67.38   1.000
  S26                   490910.89       0.00       0.00      30.56  490928.15   141633.60   114.61   1.000
  S27                   490910.89       0.00       0.00      19.27  490978.92    71501.68    57.85   1.000
  S28                   490910.89       0.00       0.00      11.37  490983.74    18102.68    14.65   1.000
  S29                   490910.89       0.00       0.00      12.56  490959.83     8145.07     6.59   1.000
  S30                   490910.89       0.00       0.00      29.88  490945.72   131863.88   106.70   1.000
  S31                   490910.89       0.00       0.00      35.66  490942.95   142546.12   115.35   1.000
  S38                   490910.89       0.00       0.00      42.31  490920.64   211769.67   171.37   1.000
  S40                   490910.89       0.00       0.00      38.41  490917.02   195926.13   158.55   1.000
  S41                   490910.89       0.00       0.00      28.35  490971.98   105441.76    85.32   1.000
  S42                   490910.89 1887080.57       0.00      44.57 2377989.03   230143.12   186.24   1.000
  S44                   490910.89       0.00       0.00      34.49  490971.66    50231.60    40.64   1.000
  S46                   490910.89       0.00       0.00      16.49  490941.01   158830.17   128.53   1.000
  S47                   490910.89       0.00       0.00      65.69  490886.08    86416.09    69.93   1.000
  S48                   490910.89       0.00       0.00      36.53  490931.84   144344.62   116.81   1.000
  S49                   490910.89       0.00       0.00      35.06  490950.27    95480.57    77.26   1.000
  S50                   490910.89       0.00       0.00      24.07  490946.86   139370.81   112.78   1.000
  S79                   490910.89       0.00       0.00      30.89  490960.25   126702.85   102.52   1.000
  S84                   490910.89       0.00       0.00      53.97  490894.18   191376.21   154.88   1.000
  S85                   490910.89       0.00       0.00      48.19  490929.26   164697.91   133.28   1.000
  S86                   490910.89       0.00       0.00      24.91  490973.01    93216.68    75.43   1.000
  S87                   490910.89       0.00       0.00      26.51  490975.52    94120.56    76.16   1.000
  S51                   490910.89       0.00       0.00      40.52  490944.22   221274.76   179.05   1.000
  S13                   490910.89  248500.55       0.00      26.89  739471.27   165635.14   134.03   1.000
  S12                   490910.89       0.00       0.00      13.19  490921.20     1811.51     1.47   1.000
  S39                   490910.89       0.00       0.00      33.33  490934.16   182638.39   147.79   1.000
  S18                   490910.89       0.00       0.00      42.26  490934.74    81908.03    66.28   1.000
  S16                   490910.89       0.00       0.00      17.49  490960.79    13575.15    10.98   1.000
  S19                   490910.89   36909.69       0.00      48.80  527822.72   194123.78   157.09   1.000
  S78                   490910.89       0.00       0.00      79.13  490907.76   156099.76   126.32   1.000
  S14                   490910.89       0.00       0.00      87.32  490823.36   171018.58   138.42   1.000
  S15                   490910.89       0.00       0.00      60.68  490889.86   129860.76   105.09   1.000
  S81                   490910.89       0.00       0.00      57.21  490899.22   195457.58   158.18   1.000
  S83                   490910.89 1136634.42       0.00      39.66 1627554.73   223513.40   180.88   1.000
  S82                   490910.89  759526.23       0.00      28.25 1250499.26    61087.25    49.44   1.000
  S80                   490910.89       0.00       0.00      75.99  490923.63    37104.23    30.03   1.000
  S45                   490910.89  170755.58       0.00      48.51  661665.04   224431.48   181.62   1.000
  S43                   490910.89 3205472.30       0.00      49.25 3696259.37    57920.72    46.87   1.000
  
  
  ******************
  Node Depth Summary
  ******************
  
  ---------------------------------------------------------------------------------
                                 Average  Maximum  Maximum  Time of Max    Reported
                                   Depth    Depth      HGL   Occurrence   Max Depth
  Node                 Type       Meters   Meters   Meters  days hr:min      Meters
  ---------------------------------------------------------------------------------
  J5                   JUNCTION     0.16     0.61  2143.44   317  10:25        0.61
  J10                  JUNCTION     0.25     1.10  2123.00     3  09:26        1.10
  J11                  JUNCTION     0.26     1.10  2118.00     3  09:17        1.10
  J6                   JUNCTION     0.14     0.51  2135.34   317  10:25        0.50
  J7                   JUNCTION     0.30     1.18  2128.01     3  09:10        1.18
  J8                   JUNCTION     0.26     1.00  2121.83     3  09:11        1.00
  J9                   JUNCTION     0.29     1.18  2115.01     3  09:11        1.18
  J12                  JUNCTION     0.24     1.10  2112.00     3  09:17        1.10
  J13                  JUNCTION     0.28     1.10  2106.00     3  09:13        1.10
  J14                  JUNCTION     0.29     1.10  2103.00     3  09:09        1.10
  J15                  JUNCTION     0.29     1.10  2099.00     3  09:13        1.10
  J16                  JUNCTION     0.18     1.00  2125.05     5  09:03        1.00
  J17                  JUNCTION     0.24     1.00  2115.05     3  09:24        1.00
  J18                  JUNCTION     0.26     1.10  2136.00     3  09:14        1.10
  J19                  JUNCTION     0.26     1.10  2132.00     3  09:12        1.10
  J20                  JUNCTION     0.28     1.10  2129.00     3  09:09        1.10
  J21                  JUNCTION     0.26     1.00  2124.90     3  09:10        1.00
  J1                   JUNCTION     0.29     1.18  2163.01     3  09:12        1.18
  J2                   JUNCTION     0.31     1.18  2160.01     3  09:10        1.18
  J3                   JUNCTION     0.27     1.00  2157.83     3  09:12        1.00
  J4                   JUNCTION     0.16     0.61  2149.44   317  10:25        0.61
  J43                  JUNCTION     0.21     1.00  2088.10     3  09:32        1.00
  J44                  JUNCTION     0.22     1.00  2083.10     3  09:17        1.00
  J45                  JUNCTION     0.32     1.00  2080.10     3  09:02        1.00
  J46                  JUNCTION     0.34     1.00  2080.10     3  09:01        1.00
  J47                  JUNCTION     0.34     1.00  2080.10     3  09:04        1.00
  J48                  JUNCTION     0.02     0.06  2071.16   298  12:50        0.06
  J49                  JUNCTION     0.03     0.07  2062.17   298  12:50        0.07
  J50                  JUNCTION     0.25     1.00  2059.10     3  09:11        1.00
  J51                  JUNCTION     0.25     1.00  2052.10     3  09:10        1.00
  J52                  JUNCTION     0.23     1.00  2046.10     3  09:11        1.00
  J23                  JUNCTION     0.24     1.10  2082.00     3  09:21        1.10
  J24                  JUNCTION     0.22     1.00  2080.90     3  09:20        1.00
  J25                  JUNCTION     0.23     1.10  2079.00     5  09:04        1.10
  J26                  JUNCTION     0.27     1.10  2075.00     3  09:11        1.10
  J22                  JUNCTION     0.23     1.10  2083.00     3  09:25        1.10
  J32                  JUNCTION     0.21     1.10  2075.00     5  09:01        1.10
  J33                  JUNCTION     0.20     1.10  2071.00     6  09:08        1.10
  J34                  JUNCTION     0.32     1.10  2067.00     3  09:08        1.10
  J27                  JUNCTION     0.32     1.10  2095.00     3  09:04        1.10
  J28                  JUNCTION     0.32     1.10  2090.00     3  09:14        1.10
  J29                  JUNCTION     0.26     1.00  2086.90     3  09:18        1.00
  J30                  JUNCTION     0.22     1.10  2082.00     3  09:16        1.10
  J31                  JUNCTION     0.28     1.10  2079.00     3  09:17        1.10
  J35                  JUNCTION     0.33     1.10  2065.00     3  09:07        1.10
  J36                  JUNCTION     0.30     1.00  2063.90     3  09:08        1.00
  J37                  JUNCTION     0.32     1.10  2061.00     3  09:07        1.10
  J38                  JUNCTION     0.30     1.00  2058.90     3  09:07        1.00
  J39                  JUNCTION     0.31     1.10  2054.00     3  09:09        1.10
  J40                  JUNCTION     0.33     1.10  2047.00     3  09:06        1.10
  J41                  JUNCTION     0.27     1.17  2049.00     3  09:14        1.17
  J42                  JUNCTION     0.30     1.17  2046.00     3  09:09        1.17
  J54                  JUNCTION     0.22     1.03  2040.01     3  09:33        1.03
  J55                  JUNCTION     0.25     1.03  2035.01     3  09:10        1.03
  J56                  JUNCTION     0.24     1.03  2029.01     3  09:11        1.03
  J57                  JUNCTION     0.28     1.03  2023.01     3  09:06        1.03
  J58                  JUNCTION     0.30     1.17  2040.00     3  09:09        1.17
  J59                  JUNCTION     0.30     1.17  2035.00     3  09:09        1.17
  J60                  JUNCTION     0.32     1.20  2028.00     3  09:08        1.20
  J53                  JUNCTION     0.27     1.00  2039.10     3  09:08        1.00
  O-fall2              OUTFALL      0.25     1.00  2081.90     3  09:16        1.00
  O-fall1              OUTFALL      0.25     1.00  2100.83     3  09:13        1.00
  O-fall3              OUTFALL      0.24     1.00  2106.05     3  09:27        1.00
  O-fall4              OUTFALL      0.14     0.54  2109.44   191  09:56        0.54
  O-fall7              OUTFALL      0.26     1.00  2034.10     3  09:08        1.00
  O-fall5              OUTFALL      0.25     1.00  2068.90     3  09:13        1.00
  O-fall6              OUTFALL      0.30     1.00  2042.90     3  09:06        1.00
  O-fall8              OUTFALL      0.28     1.00  2020.98     3  09:06        1.00
  
  
  *******************
  Node Inflow Summary
  *******************
  
  -------------------------------------------------------------------------------------------------
                                  Maximum  Maximum                  Lateral       Total        Flow
                                  Lateral    Total  Time of Max      Inflow      Inflow     Balance
                                   Inflow   Inflow   Occurrence      Volume      Volume       Error
  Node                 Type           CMS      CMS  days hr:min    10^6 ltr    10^6 ltr     Percent
  -------------------------------------------------------------------------------------------------
  J5                   JUNCTION     0.000    2.928   317  10:25           0   2.26e+004       0.000
  J10                  JUNCTION   101.805  101.805   315  12:24   1.26e+005   1.26e+005       0.000
  J11                  JUNCTION    59.690   63.744   315  12:01   7.38e+004   1.02e+005       0.000
  J6                   JUNCTION     0.000    2.927   317  10:25           0   2.26e+004       0.000
  J7                   JUNCTION    76.085   78.818   315  10:56    9.4e+004   1.17e+005       0.000
  J8                   JUNCTION     0.000    4.479   304  09:06           0    3.4e+004       0.000
  J9                   JUNCTION    94.843   99.019   315  11:10   1.17e+005   1.51e+005       0.000
  J12                  JUNCTION     0.000    4.894   312  09:40           0   3.39e+004      -0.000
  J13                  JUNCTION     0.000    4.804   109  09:40           0   3.39e+004       0.000
  J14                  JUNCTION    68.112   71.342   315  11:51   8.42e+004    1.1e+005       0.000
  J15                  JUNCTION   134.027  137.440   315  11:33   1.66e+005   1.94e+005       0.000
  J16                  JUNCTION    62.618   62.618   315  12:26   7.74e+004   7.74e+004       0.000
  J17                  JUNCTION   138.419  144.826   316  09:00   1.71e+005   2.05e+005       0.000
  J18                  JUNCTION   115.347  115.347   315  11:26   1.43e+005   1.43e+005       0.000
  J19                  JUNCTION     0.000    3.807    17  09:57           0    2.6e+004       0.000
  J20                  JUNCTION   106.703  109.819   315  11:21   1.32e+005   1.55e+005       0.000
  J21                  JUNCTION     0.000    3.919   175  09:29           0   2.97e+004       0.000
  J1                   JUNCTION   179.884  179.884   315  12:16   2.22e+005   2.22e+005       0.000
  J2                   JUNCTION     0.000    3.686   313  09:05           0   2.73e+004       0.000
  J3                   JUNCTION     0.000    2.931   361  09:09           0   2.26e+004       0.000
  J4                   JUNCTION     0.000    2.929   317  10:25           0   2.26e+004       0.000
  J43                  JUNCTION    85.318   85.318   315  10:51   1.05e+005   1.05e+005       0.000
  J44                  JUNCTION     0.000    5.030   312  09:07           0   3.04e+004       0.000
  J45                  JUNCTION     0.000    4.063   232  09:29           0   2.58e+004       0.000
  J46                  JUNCTION   158.551  158.592   315  12:09   1.96e+005   1.96e+005       0.000
  J47                  JUNCTION     0.000    0.043   146  13:06           0         419       0.000
  J48                  JUNCTION     0.000    0.043   298  12:50           0         419       0.000
  J49                  JUNCTION     0.000    0.043   298  12:50           0         419       0.000
  J50                  JUNCTION   179.054  179.094   315  11:21   2.21e+005   2.22e+005       0.000
  J51                  JUNCTION     0.000    5.177    33  09:06           0   3.62e+004       0.000
  J52                  JUNCTION     0.000    4.819   312  09:46           0   3.51e+004      -0.000
  J23                  JUNCTION     1.466    3.716   316  03:05   1.81e+003   1.67e+004       0.000
  J24                  JUNCTION    14.647   16.789   315  10:35   1.81e+004   3.26e+004       0.000
  J25                  JUNCTION     6.591    9.403   316  04:30   8.14e+003   2.72e+004      -0.000
  J26                  JUNCTION   157.092  161.276   315  13:55   1.94e+005   2.19e+005       0.000
  J22                  JUNCTION    45.039   45.039   315  11:01   5.57e+004   5.57e+004       0.000
  J32                  JUNCTION    57.855   57.855   315  10:38   7.15e+004   7.15e+004       0.000
  J33                  JUNCTION     0.000    4.615    27  09:33           0   2.57e+004       0.000
  J34                  JUNCTION     0.000   11.375   264  09:25           0   7.84e+004       0.000
  J27                  JUNCTION   233.621  233.621   316  08:45   2.89e+005   2.89e+005       0.000
  J28                  JUNCTION    67.377   68.626   315  11:41   8.33e+004   9.48e+004       0.000
  J29                  JUNCTION     0.000    3.459   175  09:17           0   2.61e+004       0.000
  J30                  JUNCTION     0.000    3.448   109  09:46           0   2.61e+004      -0.000
  J31                  JUNCTION   114.613  117.840   315  11:40   1.42e+005   1.68e+005       0.000
  J35                  JUNCTION     0.000    3.299    41  09:44           0   2.79e+004       0.000
  J36                  JUNCTION     0.000    2.222    62  10:25           0   1.92e+004       0.000
  J37                  JUNCTION   198.460  200.523   316  09:00   2.45e+005   2.64e+005       0.000
  J38                  JUNCTION     0.000    3.525   269  09:51           0   3.02e+004       0.000
  J39                  JUNCTION   181.618  184.895   316  05:05   2.24e+005   2.55e+005       0.000
  J40                  JUNCTION   116.805  122.285   315  11:39   1.44e+005   1.93e+005       0.000
  J41                  JUNCTION   112.777  112.777   315  11:20   1.39e+005   1.39e+005       0.000
  J42                  JUNCTION    77.261   80.491   315  11:16   9.55e+004   1.19e+005       0.000
  J54                  JUNCTION    76.157   76.157   315  10:40   9.41e+004   9.41e+004       0.000
  J55                  JUNCTION    75.426   79.640   315  10:51   9.32e+004   1.21e+005       0.000
  J56                  JUNCTION     0.000    4.796   266  09:02           0   3.28e+004       0.000
  J57                  JUNCTION   133.276  137.738   315  11:39   1.65e+005   1.98e+005       0.000
  J58                  JUNCTION   313.052  313.052   315  12:39   3.87e+005   3.87e+005       0.000
  J59                  JUNCTION    49.439   54.049   316  07:10   6.11e+004   9.94e+004       0.000
  J60                  JUNCTION   180.878  186.525   316  08:55   2.24e+005    2.7e+005       0.000
  J53                  JUNCTION   102.524  107.205   315  11:10   1.27e+005   1.62e+005       0.000
  O-fall2              OUTFALL      0.000    7.679     6  09:19           0   5.59e+004       0.000
  O-fall1              OUTFALL      0.000    7.251     9  09:20           0   5.32e+004       0.000
  O-fall3              OUTFALL    105.094  111.470   315  12:36    1.3e+005   1.77e+005       0.000
  O-fall4              OUTFALL    171.370  175.024   315  12:01   2.12e+005   2.42e+005       0.000
  O-fall7              OUTFALL      0.000    4.674   191  10:25           0   3.58e+004       0.000
  O-fall5              OUTFALL    186.239  191.835   316  04:25    2.3e+005   2.73e+005       0.000
  O-fall6              OUTFALL      0.000    7.224     9  10:34           0   6.13e+004       0.000
  O-fall8              OUTFALL      0.000    9.853   192  09:06           0   7.93e+004       0.000
  
  
  *********************
  Node Flooding Summary
  *********************
  
  Flooding refers to all water that overflows a node, whether it ponds or not.
  --------------------------------------------------------------------------
                                                             Total   Maximum
                                 Maximum   Time of Max       Flood    Ponded
                        Hours       Rate    Occurrence      Volume    Volume
  Node                 Flooded       CMS   days hr:min    10^6 ltr   1000 m3
  --------------------------------------------------------------------------
  J10                  1515.68    97.751    315  12:24   97440.559     0.000
  J11                  1731.45    59.192    315  11:59   68230.379     0.000
  J7                   1828.10    74.642    315  10:56   82576.266     0.000
  J9                   1730.53    92.282    315  11:11   98065.564     0.000
  J12                     2.28     0.233    363  09:15       0.837     0.000
  J13                  1809.72     1.541    363  09:16    8384.289     0.000
  J14                  1932.53    67.929    315  11:54   81412.429     0.000
  J15                  1730.83   130.315    315  11:34  137985.989     0.000
  J16                   907.83    56.210    315  12:28   43261.355     0.000
  J17                  1708.41   138.450    316  09:00  158388.462     0.000
  J18                  1705.41   111.798    315  11:24  116567.963     0.000
  J19                  1731.09     0.673    109  09:39    2708.306     0.000
  J20                  1903.13   106.165    315  11:21  125456.115     0.000
  J1                   1833.00   176.451    315  12:15  194966.542     0.000
  J2                   1932.02     0.919      9  10:03    4752.086     0.000
  J43                  1390.39    80.640    315  10:46   75089.788     0.000
  J44                  1510.78     1.183     38  09:23    4630.209     0.000
  J45                  2691.15     3.976    232  09:29   25357.791     0.000
  J46                  2781.37   158.552    315  12:09  195914.357     0.000
  J50                  1731.15   174.280    315  11:21  185509.803     0.000
  J51                  1755.78     0.631    355  09:27    2075.052     0.000
  J52                     0.95     0.082     41  09:21       0.083     0.000
  J23                  1487.20     1.574    316  05:36    2260.822     0.000
  J24                  1484.07    13.976    315  10:36   13588.393     0.000
  J25                   552.06     5.219    316  02:00    2856.557     0.000
  J26                  1735.03   155.680    316  07:55  176027.738     0.000
  J22                  1392.53    42.789    315  11:01   40726.908     0.000
  J32                  1149.63    53.567    315  10:39   45826.236     0.000
  J33                    48.49     0.185     27  09:33      14.664     0.000
  J34                  2264.59     8.252    281  09:24   50568.596     0.000
  J27                  2374.91   232.373    316  08:46  277193.253     0.000
  J28                  1706.58    65.398    315  11:41   68657.426     0.000
  J30                    25.07     0.092    109  09:46       4.450     0.000
  J31                  1705.87   110.990    315  11:41  115211.539     0.000
  J35                  2418.84     1.209    339  10:18    8703.689     0.000
  J37                  2362.47   197.246    316  09:00  234219.033     0.000
  J39                  2098.59   179.416    316  05:06  205696.006     0.000
  J40                  2423.38   118.536    315  11:39  158248.626     0.000
  J41                  1706.75   109.548    315  11:20  115444.066     0.000
  J42                  1901.76    77.251    315  11:11   93204.482     0.000
  J54                  1366.86    71.943    315  10:40   66838.333     0.000
  J55                  1705.03    75.178    315  21:41   87677.389     0.000
  J56                     1.42     0.179     32  09:30       0.409     0.000
  J57                  2096.00   134.663    315  11:39  171122.779     0.000
  J58                  1935.28   308.442    315  12:31  348543.442     0.000
  J59                  1804.37    48.402    316  07:11   53008.439     0.000
  J60                  2098.76   180.353    316  08:56  217057.987     0.000
  J53                  1927.41   102.859    315  11:10  125959.204     0.000
  
  
  ***********************
  Outfall Loading Summary
  ***********************
  
  -----------------------------------------------------------
                         Flow       Avg       Max       Total
                         Freq      Flow      Flow      Volume
  Outfall Node           Pcnt       CMS       CMS    10^6 ltr
  -----------------------------------------------------------
  O-fall2               50.14     3.535     7.679   55917.779
  O-fall1               49.86     3.380     7.251   53183.376
  O-fall3               44.11    12.692   111.470  176650.911
  O-fall4               49.88    15.346   175.024  241508.070
  O-fall7               50.75     2.237     4.674   35819.298
  O-fall5               48.97    17.644   191.835  272617.177
  O-fall6               58.69     3.310     7.224   61286.720
  O-fall8               49.21     5.104     9.853   79261.048
  -----------------------------------------------------------
  System                50.20    63.247   512.770  976244.379
  
  
  ********************
  Link Flow Summary
  ********************
  
  -----------------------------------------------------------------------------
                                 Maximum  Time of Max   Maximum    Max/    Max/
                                  |Flow|   Occurrence   |Veloc|    Full    Full
  Link                 Type          CMS  days hr:min     m/sec    Flow   Depth
  -----------------------------------------------------------------------------
  C1                   CONDUIT     3.686   313  09:05      5.17    1.07    1.00
  C2                   CONDUIT     2.931   361  09:09      4.12    1.07    1.00
  C3                   CONDUIT     2.929   317  10:25      6.57    0.60    0.56
  C4                   CONDUIT     2.928   317  10:25      5.85    0.69    0.61
  C5                   CONDUIT     2.927   317  10:25      7.29    0.52    0.51
  C6                   CONDUIT     2.926   317  10:25      7.28    0.52    0.51
  C7                   CONDUIT     4.479   304  09:06      6.22    1.07    1.00
  C8                   CONDUIT     4.446    32  09:11      6.78    0.97    0.79
  C9                   CONDUIT     7.251     9  09:20      9.99    1.08    1.00
  C10                  CONDUIT     4.354   294  09:57      6.15    1.07    1.00
  C11                  CONDUIT     4.894   312  09:40      6.81    1.08    1.00
  C12                  CONDUIT     4.804   109  09:40      6.97    1.04    0.93
  C13                  CONDUIT     3.465   286  09:20      4.87    1.07    1.00
  C14                  CONDUIT     3.662   317  10:13      5.15    1.07    1.00
  C15                  CONDUIT     7.679     6  09:19     10.58    1.08    1.00
  C16                  CONDUIT     6.905   175  09:03      9.65    1.08    1.00
  C17                  CONDUIT     6.871    45  12:03      9.44    1.08    1.00
  C22                  CONDUIT     2.413   232  09:14      3.50    1.07    1.00
  C23                  CONDUIT     2.299     3  09:30      3.35    1.07    1.00
  C24                  CONDUIT     3.015   305  09:03      4.33    1.07    1.00
  C25                  CONDUIT     4.488   339  09:02      6.52    1.07    1.00
  C26                  CONDUIT     6.031   312  09:50      8.33    1.08    1.00
  C18                  CONDUIT     3.807    17  09:57      5.45    1.07    1.00
  C19                  CONDUIT     3.341   361  09:19      4.79    1.07    1.00
  C20                  CONDUIT     3.919   175  09:29      5.54    1.07    1.00
  C21                  CONDUIT     3.905   191  09:56      9.05    0.57    0.54
  C27                  CONDUIT     1.351    85  10:47      2.11    1.08    1.00
  C28                  CONDUIT     3.459   175  09:17      4.85    1.07    1.00
  C29                  CONDUIT     3.448   109  09:46      5.93    0.84    0.70
  C30                  CONDUIT     3.505   272  09:14      5.05    1.05    0.92
  C31                  CONDUIT     7.382    45  09:55     10.23    1.08    1.00
  C32                  CONDUIT     4.615    27  09:33      6.54    1.08    1.00
  C33                  CONDUIT     4.525   264  09:25      6.69    1.03    0.92
  C34                  CONDUIT     3.299    41  09:44      4.57    1.07    1.00
  C35                  CONDUIT     2.222    62  10:25      3.08    1.08    1.00
  C36                  CONDUIT     2.221    62  10:25      5.32    0.55    0.53
  C37                  CONDUIT     3.525   269  09:51      4.85    1.08    1.00
  C38                  CONDUIT     3.497    49  10:18      6.22    0.80    0.68
  C39                  CONDUIT     5.905    23  09:29      8.09    1.08    1.00
  C40                  CONDUIT     4.025   221  09:37      5.59    1.07    1.00
  C41                  CONDUIT     3.462    49  09:20      4.93    1.07    1.00
  C42                  CONDUIT     3.476     9  10:34      4.90    1.07    1.00
  C43                  CONDUIT     5.030   312  09:07      7.23    1.08    1.00
  C44                  CONDUIT     4.063   232  09:29      5.79    1.08    1.00
  C45                  CONDUIT     0.045    53  09:15      0.07    1.08    1.00
  C46                  CONDUIT     0.043   146  13:06      0.06    1.08    1.00
  C47                  CONDUIT     0.043   298  12:50      2.30    0.01    0.06
  C48                  CONDUIT     0.043   298  12:50      2.32    0.01    0.06
  C49                  CONDUIT     0.043   176  12:57      1.63    0.01    0.07
  C50                  CONDUIT     5.177    33  09:06      7.30    1.08    1.00
  C51                  CONDUIT     4.819   312  09:46      6.83    1.07    1.00
  C52                  CONDUIT     4.910    41  09:21      7.14    1.04    0.91
  C53                  CONDUIT     4.674   191  10:25      6.50    1.08    1.00
  C54                  CONDUIT     4.510    38  09:21      6.54    1.07    1.00
  C55                  CONDUIT     4.796   266  09:02      6.83    1.07    1.00
  C56                  CONDUIT     4.747   361  09:17      6.92    1.04    0.92
  C57                  CONDUIT     3.303    31  09:53      4.61    1.07    1.00
  C58                  CONDUIT     4.962   276  09:25      6.84    1.08    1.00
  C59                  CONDUIT     6.085   312  09:25      8.38    1.08    1.00
  C60                  CONDUIT     6.650   292  09:15      9.12    1.08    1.00
  
  
  *************************
  Conduit Surcharge Summary
  *************************
  
  ----------------------------------------------------------------------------
                                                           Hours        Hours 
                         --------- Hours Full --------   Above Full   Capacity
  Conduit                Both Ends  Upstream  Dnstream   Normal Flow   Limited
  ----------------------------------------------------------------------------
  C1                       1832.71   1832.71   1832.71     24.31      1832.71
  C2                       1931.72   1931.72   1931.72   1932.00      1931.72
  C7                       1827.79   1827.79   1827.79   1828.04      1827.79
  C9                       1730.18   1730.18   1730.18   1730.26      1730.18
  C10                      1515.39   1515.39   1515.39   1515.53      1515.39
  C11                      1731.16   1731.16   1731.16   1731.30      1731.16
  C12                         1.75      1.75      1.75      1.77         1.75
  C13                      1809.43   1809.43   1809.43   1809.59      1809.43
  C14                      1932.22   1932.22   1932.22   1932.59      1932.22
  C15                      1730.53   1730.53   1730.53   1730.58      1730.53
  C16                       907.57    907.57    907.57    907.63       907.57
  C17                      1708.13   1708.13   1708.13   1708.15      1708.13
  C22                      1392.24   1392.24   1392.24   1392.54      1392.24
  C23                      1486.92   1486.92   1486.92   1487.02      1486.92
  C24                      1483.76   1483.76   1483.76    119.52      1483.76
  C25                       551.88    551.88    551.88    551.95       551.88
  C26                      1734.73   1734.73   1734.73   1734.82      1734.73
  C18                      1705.13   1705.13   1705.13   1705.34      1705.13
  C19                      1730.80   1730.80   1730.80   1730.93      1730.80
  C20                      1902.83   1902.83   1902.83   1903.03      1902.83
  C27                      2374.62   2374.62   2374.62   2379.64      2374.62
  C28                      1706.30   1706.30   1706.30   1706.50      1706.30
  C30                        24.64     24.64     24.64     24.30        24.64
  C31                      1705.51   1705.51   1705.51    166.44      1705.51
  C32                      1149.34   1149.34   1149.34     95.27      1149.34
  C33                        48.04     48.04     48.04     48.03        48.04
  C34                      2264.32   2264.32   2264.32   2264.47      2264.32
  C35                      2418.54   2418.54   2418.54   2418.88      2418.54
  C37                      2362.16   2362.16   2362.16   2362.28      2362.16
  C39                      2098.31   2098.31   2098.31   2098.34      2098.31
  C40                      2423.08   2423.08   2423.08   2423.32      2423.08
  C41                      1706.47   1706.47   1706.47   1706.66      1706.47
  C42                      1901.46   1901.46   1901.46   1901.67      1901.46
  C43                      1390.10   1390.10   1390.10   1390.17      1390.10
  C44                      1510.50   1510.50   1510.50   1510.63      1510.50
  C45                      2690.82   2690.82   2690.82   2701.88      2690.82
  C46                      2781.07   2781.07   2781.07   2797.37      2781.07
  C50                      1730.86   1730.86   1730.86     25.10      1730.86
  C51                      1755.48   1755.48   1755.48   1755.60      1755.48
  C52                         0.60      0.60      0.60      0.57         0.60
  C53                      1927.11   1927.11   1927.11     25.08      1927.11
  C54                      1366.57   1366.57   1366.57   1366.72      1366.57
  C55                      1704.75   1704.75   1704.75   1704.88      1704.75
  C56                         0.99      0.99      0.99      0.98         0.99
  C57                      2095.72   2095.72   2095.72   2095.88      2095.72
  C58                      1934.98   1934.98   1934.98      4.15      1934.98
  C59                      1803.99   1803.99   1803.99   1804.02      1803.99
  C60                      2098.47   2098.47   2098.47   2098.54      2098.47
  

  Analysis begun on:  Wed Jan 02 08:37:45 2019
  Analysis ended on:  Wed Jan 02 08:39:41 2019
  Total elapsed time: 00:01:56