
  EPA STORM WATER MANAGEMENT MODEL - VERSION 5.1 (Build 5.1.012)
  --------------------------------------------------------------

  
  *********************************************************
  NOTE: The summary statistics displayed in this report are
  based on results found at every computational time step,  
  not just on results from each reporting time step.
  *********************************************************
  
  ****************
  Analysis Options
  ****************
  Flow Units ............... CFS
  Process Models:
    Rainfall/Runoff ........ YES
    RDII ................... NO
    Snowmelt ............... NO
    Groundwater ............ NO
    Flow Routing ........... NO
    Water Quality .......... NO
  Infiltration Method ...... HORTON
  Starting Date ............ 03/31/2003 00:00:00
  Ending Date .............. 04/01/2003 00:00:00
  Antecedent Dry Days ...... 0.0
  Report Time Step ......... 00:15:00
  Wet Time Step ............ 00:05:00
  Dry Time Step ............ 00:05:00
  
  
  **************************        Volume         Depth
  Runoff Quantity Continuity     acre-feet        inches
  **************************     ---------       -------
  Total Precipitation ......     46475.000        10.000
  Evaporation Loss .........       345.642         0.074
  Infiltration Loss ........     32601.156         7.015
  Surface Runoff ...........     11229.861         2.416
  Final Storage ............      2310.275         0.497
  Continuity Error (%) .....        -0.026
  
  
  **************************        Volume        Volume
  Flow Routing Continuity        acre-feet      10^6 gal
  **************************     ---------     ---------
  Dry Weather Inflow .......         0.000         0.000
  Wet Weather Inflow .......     11218.506      3655.718
  Groundwater Inflow .......         0.000         0.000
  RDII Inflow ..............         0.000         0.000
  External Inflow ..........         0.000         0.000
  External Outflow .........     11218.506      3655.718
  Flooding Loss ............         0.000         0.000
  Evaporation Loss .........         0.000         0.000
  Exfiltration Loss ........         0.000         0.000
  Initial Stored Volume ....         0.000         0.000
  Final Stored Volume ......         0.000         0.000
  Continuity Error (%) .....         0.000
  
  
  ***************************
  Subcatchment Runoff Summary
  ***************************
  
  --------------------------------------------------------------------------------------------------------
                            Total      Total      Total      Total      Total       Total     Peak  Runoff
                           Precip      Runon       Evap      Infil     Runoff      Runoff   Runoff   Coeff
  Subcatchment                 in         in         in         in         in    10^6 gal      CFS
  --------------------------------------------------------------------------------------------------------
  8                         10.00       0.00       0.13       4.63       4.82       22.66   192.29   0.482
  9                         10.00       0.00       0.21       1.38       8.04        2.84    32.67   0.804
  26                        10.00       0.00       0.08       6.73       2.77       91.68   582.50   0.277
  27                        10.00       0.00       0.07       7.03       2.56      200.71  1336.12   0.256
  2                         10.00       0.00       0.10       6.12       3.11      283.34  1616.78   0.311
  3                         10.00       0.00       0.10       5.89       3.42      154.06   942.20   0.342
  0                         10.00       0.00       0.09       6.39       2.53      528.65  2482.67   0.253
  1                         10.00       0.00       0.11       5.60       4.14        4.83    59.60   0.414
  6                         10.00       0.00       0.05       7.95       1.69      183.82  1104.59   0.169
  24                        10.00       0.00       0.07       7.17       2.09      318.36  1598.97   0.209
  25                        10.00       0.00       0.08       6.67       2.71      119.74   703.69   0.271
  19                        10.00       0.00       0.04       8.52       1.35       84.31   780.65   0.135
  18                        10.00       0.00       0.11       5.60       3.75      136.83   882.13   0.375
  28                        10.00       0.00       0.11       5.59       3.79       74.91   494.31   0.379
  13                        10.00       0.00       0.04       8.56       1.29       86.89   714.99   0.129
  12                        10.00       0.00       0.09       6.50       2.96      139.59   885.10   0.296
  11                        10.00       0.00       0.10       6.13       3.05      235.09  1307.93   0.305
  10                        10.00       0.00       0.09       6.54       3.09       90.98   741.71   0.309
  17                        10.00       0.00       0.05       7.99       1.82      139.09  1269.29   0.182
  16                        10.00       0.00       0.04       8.44       1.39      110.17   872.97   0.139
  15                        10.00       0.00       0.08       6.82       2.81      104.41   793.02   0.281
  14                        10.00       0.00       0.10       5.99       3.49       71.49   503.19   0.349
  29                        10.00       0.00       0.15       4.17       4.71      125.30   727.06   0.471
  20                        10.00       0.00       0.09       6.37       3.27       36.83   319.63   0.327
  21                        10.00       0.00       0.07       7.29       2.37       99.59   717.71   0.237
  22                        10.00       0.00       0.03       8.89       1.01       58.71   538.70   0.101
  23                        10.00       0.00       0.09       6.46       2.81      154.27   868.33   0.281
  

  Analysis begun on:  Wed Jan 02 08:37:45 2019
  Analysis ended on:  Wed Jan 02 08:37:45 2019
  Total elapsed time: < 1 sec