
  EPA STORM WATER MANAGEMENT MODEL - VERSION 5.1 (Build 5.1.012)
  --------------------------------------------------------------

   Example 2 of Extran Manual - 
   Tide Gate 
  
  
  *********************************************************
  NOTE: The summary statistics displayed in this report are
  based on results found at every computational time step,  
  not just on results from each reporting time step.
  *********************************************************
  
  ****************
  Analysis Options
  ****************
  Flow Units ............... CFS
  Process Models:
    Rainfall/Runoff ........ NO
    RDII ................... NO
    Snowmelt ............... NO
    Groundwater ............ NO
    Flow Routing ........... YES
    Ponding Allowed ........ NO
    Water Quality .......... NO
  Flow Routing Method ...... DYNWAVE
  Starting Date ............ 01/01/2002 00:00:00
  Ending Date .............. 01/01/2002 08:00:00
  Antecedent Dry Days ...... 0.0
  Report Time Step ......... 00:15:00
  Routing Time Step ........ 20.00 sec
  Variable Time Step ....... NO
  Maximum Trials ........... 8
  Number of Threads ........ 1
  Head Tolerance ........... 0.005000 ft
  
  
  **************************        Volume        Volume
  Flow Routing Continuity        acre-feet      10^6 gal
  **************************     ---------     ---------
  Dry Weather Inflow .......         0.000         0.000
  Wet Weather Inflow .......         0.000         0.000
  Groundwater Inflow .......         0.000         0.000
  RDII Inflow ..............         0.000         0.000
  External Inflow ..........         0.000         0.000
  External Outflow .........         0.000         0.000
  Flooding Loss ............         0.000         0.000
  Evaporation Loss .........         0.000         0.000
  Exfiltration Loss ........         0.000         0.000
  Initial Stored Volume ....         1.569         0.511
  Final Stored Volume ......         1.570         0.512
  Continuity Error (%) .....        -0.083
  
  
  ********************************
  Highest Flow Instability Indexes
  ********************************
  All links are stable.
  
  
  ******************
  Node Depth Summary
  ******************
  
  ---------------------------------------------------------------------------------
                                 Average  Maximum  Maximum  Time of Max    Reported
                                   Depth    Depth      HGL   Occurrence   Max Depth
  Node                 Type         Feet     Feet     Feet  days hr:min        Feet
  ---------------------------------------------------------------------------------
  80408                JUNCTION     0.00     0.00   124.60     0  00:00        0.00
  80608                JUNCTION     0.00     0.00   118.30     0  00:00        0.00
  81009                JUNCTION     0.00     0.00   128.20     0  00:00        0.00
  81309                JUNCTION     0.00     0.00   117.50     0  00:00        0.00
  82309                JUNCTION     0.00     0.00   112.30     0  00:00        0.00
  10309                JUNCTION     0.00     0.00   101.60     0  00:00        0.00
  15009                JUNCTION     0.00     0.00   111.50     0  00:00        0.00
  16009                JUNCTION     0.00     0.00   102.00     0  00:00        0.00
  16109                JUNCTION     0.00     0.00   102.80     0  00:00        0.00
  10208                OUTFALL      4.50     4.50    94.40     0  00:00        4.50
  
  
  *******************
  Node Inflow Summary
  *******************
  
  -------------------------------------------------------------------------------------------------
                                  Maximum  Maximum                  Lateral       Total        Flow
                                  Lateral    Total  Time of Max      Inflow      Inflow     Balance
                                   Inflow   Inflow   Occurrence      Volume      Volume       Error
  Node                 Type           CFS      CFS  days hr:min    10^6 gal    10^6 gal     Percent
  -------------------------------------------------------------------------------------------------
  80408                JUNCTION      0.00     0.00     0  00:00           0           0       0.000 gal
  80608                JUNCTION      0.00     0.00     0  00:00           0           0       0.000 gal
  81009                JUNCTION      0.00     0.00     0  00:00           0           0       0.000 gal
  81309                JUNCTION      0.00     0.00     0  00:00           0           0       0.000 gal
  82309                JUNCTION      0.00     0.00     0  00:00           0           0       0.000 gal
  10309                JUNCTION      0.00     0.00     0  00:00           0           0       0.000 gal
  15009                JUNCTION      0.00     0.00     0  00:00           0           0       0.000 gal
  16009                JUNCTION      0.00     0.00     0  00:00           0           0       0.000 gal
  16109                JUNCTION      0.00     0.00     0  00:00           0           0       0.000 gal
  10208                OUTFALL       0.00     0.00     0  00:00           0           0       0.000 gal
  
  
  **********************
  Node Surcharge Summary
  **********************
  
  No nodes were surcharged.
  
  
  *********************
  Node Flooding Summary
  *********************
  
  No nodes were flooded.
  
  
  ***********************
  Outfall Loading Summary
  ***********************
  
  -----------------------------------------------------------
                         Flow       Avg       Max       Total
                         Freq      Flow      Flow      Volume
  Outfall Node           Pcnt       CFS       CFS    10^6 gal
  -----------------------------------------------------------
  10208                  0.00      0.00      0.00       0.000
  -----------------------------------------------------------
  System                 0.00      0.00      0.00       0.000
  
  
  ********************
  Link Flow Summary
  ********************
  
  -----------------------------------------------------------------------------
                                 Maximum  Time of Max   Maximum    Max/    Max/
                                  |Flow|   Occurrence   |Veloc|    Full    Full
  Link                 Type          CFS  days hr:min    ft/sec    Flow   Depth
  -----------------------------------------------------------------------------
  8040                 CONDUIT      0.00     0  00:00      0.00    0.00    0.00
  8060                 CONDUIT      0.00     0  00:00      0.00    0.00    0.00
  8100                 CHANNEL      0.00     0  00:00      0.00    0.00    0.00
  8130                 CONDUIT      0.00     0  00:00      0.00    0.00    0.00
  1030                 CONDUIT      0.00     0  00:00      0.00    0.00    0.25
  1570                 CONDUIT      0.00     0  00:00      0.00    0.00    0.00
  1600                 CONDUIT      0.00     0  00:00      0.00    0.00    0.00
  1630                 CONDUIT      0.00     0  00:00      0.00    0.00    0.00
  1602                 CONDUIT      0.00     0  00:00      0.00    0.00    0.00
  
  
  ***************************
  Flow Classification Summary
  ***************************
  
  -------------------------------------------------------------------------------------
                      Adjusted    ---------- Fraction of Time in Flow Class ---------- 
                       /Actual         Up    Down  Sub   Sup   Up    Down  Norm  Inlet 
  Conduit               Length    Dry  Dry   Dry   Crit  Crit  Crit  Crit  Ltd   Ctrl  
  -------------------------------------------------------------------------------------
  8040                    1.00   1.00  0.00  0.00  0.00  0.00  0.00  0.00  0.00  0.00
  8060                    1.00   1.00  0.00  0.00  0.00  0.00  0.00  0.00  0.00  0.00
  8100                    1.00   1.00  0.00  0.00  0.00  0.00  0.00  0.00  0.00  0.00
  8130                    1.00   1.00  0.00  0.00  0.00  0.00  0.00  0.00  0.00  0.00
  1030                    1.00   1.00  0.00  0.00  0.00  0.00  0.00  0.00  0.00  0.00
  1570                    1.00   1.00  0.00  0.00  0.00  0.00  0.00  0.00  0.00  0.00
  1600                    1.00   1.00  0.00  0.00  0.00  0.00  0.00  0.00  0.00  0.00
  1630                    1.00   1.00  0.00  0.00  0.00  0.00  0.00  0.00  0.00  0.00
  1602                    1.00   1.00  0.00  0.00  0.00  0.00  0.00  0.00  0.00  0.00
  
  
  *************************
  Conduit Surcharge Summary
  *************************
  
  No conduits were surcharged.
  

  Analysis begun on:  Wed Jan 02 04:58:01 2019
  Analysis ended on:  Wed Jan 02 04:58:01 2019
  Total elapsed time: < 1 sec