
  EPA STORM WATER MANAGEMENT MODEL - VERSION 5.1 (Build 5.1.012)
  --------------------------------------------------------------

  
  ERROR 209: undefined object Unknown at line 688 of [SUBCATCHMENT] section:
    H103#1           Unknown          H103             8.4      25       283.1    1.5      0                

  
  ERROR 209: undefined object Unknown at line 689 of [SUBCATCHMENT] section:
    H85#1            Unknown          H85              8.4      30       490.7    10       0                

  
  ERROR 209: undefined object Unknown at line 690 of [SUBCATCHMENT] section:
    H96#1            Unknown          H96              26.8     25       648.9    1.6      0                

  
  ERROR 209: undefined object Unknown at line 691 of [SUBCATCHMENT] section:
    H189#1           Unknown          H189             24.6     30       670      10       0                

  
  ERROR 209: undefined object Unknown at line 692 of [SUBCATCHMENT] section:
    H165#1           Unknown          H165             9.6      30       320      10       0                

  
  ERROR 209: undefined object Unknown at line 693 of [SUBCATCHMENT] section:
    H107#1           Unknown          H107             19.8     30       540      10       0                

  
  ERROR 209: undefined object Unknown at line 694 of [SUBCATCHMENT] section:
    I87#1            Unknown          I87              33.8     30       736      10       0                

  
  ERROR 209: undefined object Unknown at line 695 of [SUBCATCHMENT] section:
    L33#1            Unknown          L33              4.4      25       480      10       0                

  
  ERROR 209: undefined object Unknown at line 696 of [SUBCATCHMENT] section:
    L40#1            Unknown          L40              7.3      30       640      10       0                

  
  ERROR 209: undefined object Unknown at line 697 of [SUBCATCHMENT] section:
    M63#1            Unknown          M63              19.8     40       480      10       0                

  
  ERROR 209: undefined object Unknown at line 698 of [SUBCATCHMENT] section:
    I10A#1           Unknown          I10A             9.9      25       540      0.4      0                

  
  ERROR 209: undefined object Unknown at line 699 of [SUBCATCHMENT] section:
    I36#1            Unknown          I36              9.9      30       540      10       0                

  
  ERROR 209: undefined object Unknown at line 700 of [SUBCATCHMENT] section:
    L76#1            Unknown          L76              11.8     25       320      100      0                

  
  ERROR 209: undefined object Unknown at line 701 of [SUBCATCHMENT] section:
    X27#1            Unknown          X27              8.1      30       370.5    1.8      0                

  
  ERROR 209: undefined object Unknown at line 702 of [SUBCATCHMENT] section:
    E90#1            Unknown          E90              18.7     25       453.3    0.2      0                

  
  ERROR 209: undefined object Unknown at line 703 of [SUBCATCHMENT] section:
    K12#1            Unknown          K12              12.1     30       440      5.2      0                

  
  ERROR 209: undefined object Unknown at line 704 of [SUBCATCHMENT] section:
    K8#1             Unknown          K8               14       25       506.7    5        0                

  
  ERROR 209: undefined object Unknown at line 705 of [SUBCATCHMENT] section:
    M49#1            Unknown          M49              9.6      30       462.2    10       0                

  
  ERROR 209: undefined object Unknown at line 706 of [SUBCATCHMENT] section:
    Z158#1           Unknown          Z158             28.3     25       560      1        0                

  
  ERROR 209: undefined object Unknown at line 707 of [SUBCATCHMENT] section:
    H72#1            Unknown          H72              10.3     30       560      10       0                

  
  ERROR 209: undefined object Unknown at line 708 of [SUBCATCHMENT] section:
    I111#1           Unknown          I111             4.8      30       346.7    10       0                

  
  ERROR 209: undefined object Unknown at line 709 of [SUBCATCHMENT] section:
    I22#1            Unknown          I22              5.9      30       320      10       0                

  
  ERROR 209: undefined object Unknown at line 710 of [SUBCATCHMENT] section:
    L47#1            Unknown          L47              13.2     30       576      10       0                

  
  ERROR 209: undefined object Unknown at line 711 of [SUBCATCHMENT] section:
    X57#1            Unknown          X57              16.5     30       300      0.1      0                

  
  ERROR 209: undefined object Unknown at line 712 of [SUBCATCHMENT] section:
    Z148#1           Unknown          Z148             8.1      25       220      10       0                

  
  ERROR 209: undefined object Unknown at line 713 of [SUBCATCHMENT] section:
    J36#1            Unknown          J36              18       25       490      10       0                

  
  ERROR 209: undefined object Unknown at line 714 of [SUBCATCHMENT] section:
    J27#1            Unknown          J27              25       25       836.9    0.9      0                

  
  ERROR 209: undefined object Unknown at line 715 of [SUBCATCHMENT] section:
    J13#1            Unknown          J13              18.4     30       615.4    0.9      0                

  
  ERROR 209: undefined object Unknown at line 716 of [SUBCATCHMENT] section:
    J6#1             Unknown          J6               13.2     20       443.1    1.5      0                

  
  ERROR 209: undefined object Unknown at line 717 of [SUBCATCHMENT] section:
    X35#1            Unknown          X35              9.2      30       363.6    0.2      0                

  
  ERROR 209: undefined object Unknown at line 718 of [SUBCATCHMENT] section:
    L88#1            Unknown          L88              7.7      20       560      0.2      0                

  
  ERROR 209: undefined object Unknown at line 719 of [SUBCATCHMENT] section:
    I4#1             Unknown          I4               20.2     30       488.9    10       0                

  
  ERROR 209: undefined object Unknown at line 720 of [SUBCATCHMENT] section:
    I31#1            Unknown          I31              3.7      25       114.3    10       0                

  
  ERROR 209: undefined object Unknown at line 721 of [SUBCATCHMENT] section:
    H4#1             Unknown          H4               6.6      30       160      10       0                

  
  ERROR 209: undefined object Unknown at line 722 of [SUBCATCHMENT] section:
    H45#1            Unknown          H45              15.8     35       688      10       0                

  
  ERROR 209: undefined object Unknown at line 723 of [SUBCATCHMENT] section:
    H7#1             Unknown          H7               37.8     30       749.1    0.4      0                

  
  ERROR 209: undefined object Unknown at line 724 of [SUBCATCHMENT] section:
    H28#1            Unknown          H28              5.9      30       512      0.1      0                

  
  ERROR 209: undefined object Unknown at line 725 of [SUBCATCHMENT] section:
    H31#1            Unknown          H31              14.3     35       693.3    0.3      0                

  
  ERROR 209: undefined object Unknown at line 726 of [SUBCATCHMENT] section:
    H59#1            Unknown          H59              39.3     30       713.3    10       0                

  
  ERROR 209: undefined object Unknown at line 727 of [SUBCATCHMENT] section:
    I55#1            Unknown          I55              29.8     25       1296     10       0                

  
  ERROR 209: undefined object Unknown at line 728 of [SUBCATCHMENT] section:
    I81#1            Unknown          I81              11.8     30       568.9    10       0                

  
  ERROR 209: undefined object Unknown at line 729 of [SUBCATCHMENT] section:
    K14#1            Unknown          K14              4.4      25       480      2.6      0                

  
  ERROR 209: undefined object Unknown at line 730 of [SUBCATCHMENT] section:
    K25#1            Unknown          K25              9.2      30       285.7    2.7      0                

  
  ERROR 209: undefined object Unknown at line 731 of [SUBCATCHMENT] section:
    X47#1            Unknown          X47              7.7      20       560      10       0                

  
  ERROR 209: undefined object Unknown at line 732 of [SUBCATCHMENT] section:
    X82#1            Unknown          X82              10.3     20       289.7    10       0                

  
  ERROR 209: undefined object Unknown at line 733 of [SUBCATCHMENT] section:
    X78A#1           Unknown          X78A             9.6      20       297.1    0.1      0                

  
  ERROR 209: undefined object Unknown at line 734 of [SUBCATCHMENT] section:
    X77#1            Unknown          X77              10.3     25       248.9    0.5      0                

  
  ERROR 209: undefined object Unknown at line 735 of [SUBCATCHMENT] section:
    L32A#1           Unknown          L32A             4.8      25       346.7    10       0                

  
  ERROR 209: undefined object Unknown at line 736 of [SUBCATCHMENT] section:
    L35#1            Unknown          L35              10.7     30       580      10       0                

  
  ERROR 209: undefined object Unknown at line 737 of [SUBCATCHMENT] section:
    H172#1           Unknown          H172             30.6     30       577.4    10       0                

  
  ERROR 209: undefined object Unknown at line 738 of [SUBCATCHMENT] section:
    L4#1             Unknown          L4               6.2      30       388.6    10       0                

  
  ERROR 209: undefined object Unknown at line 739 of [SUBCATCHMENT] section:
    I21#1            Unknown          I21              16.5     25       600      0.7      0                

  
  ERROR 209: undefined object Unknown at line 740 of [SUBCATCHMENT] section:
    Y10#1            Unknown          Y10              4        25       251.4    1        0                

  
  ERROR 209: undefined object Unknown at line 741 of [SUBCATCHMENT] section:
    L1AA#1           Unknown          L1AA             1.1      20       120      10       0                

  
  ERROR 209: undefined object Rain2 at line 742 of [SUBCATCHMENT] section:
    DD65#1           Rain2            DD65             5        20       10       1        0                

  
  ERROR 209: undefined object Rain2 at line 743 of [SUBCATCHMENT] section:
    E21#1            Rain2            E21              85       30       850      3.6      0                

  
  ERROR 209: undefined object Rain2 at line 744 of [SUBCATCHMENT] section:
    F88#1            Rain2            F88              110      30       1050     3.6      0                

  
  ERROR 209: undefined object Rain2 at line 745 of [SUBCATCHMENT] section:
    C12#1            Rain2            C12              13       30       900      5        0                

  
  ERROR 209: undefined object Rain2 at line 746 of [SUBCATCHMENT] section:
    C99#1            Rain2            C99              30.5     40       3800     20       0                

  
  ERROR 209: undefined object Rain2 at line 747 of [SUBCATCHMENT] section:
    C103#1           Rain2            C103             19.5     35       2500     10       0                

  
  ERROR 209: undefined object Rain2 at line 748 of [SUBCATCHMENT] section:
    C132#1           Rain2            C132             18       20       900      14       0                

  
  ERROR 209: undefined object Rain2 at line 749 of [SUBCATCHMENT] section:
    C42#1            Rain2            C42              18       20       800      21       0                

  
  ERROR 209: undefined object Rain2 at line 750 of [SUBCATCHMENT] section:
    C52#1            Rain2            C52              14       25       750      5        0                

  
  ERROR 209: undefined object Rain2 at line 751 of [SUBCATCHMENT] section:
    F76#1            Rain2            F76              90       30       950      3.6      0                

  
  ERROR 209: undefined object Rain2 at line 752 of [SUBCATCHMENT] section:
    F29#1            Rain2            F29              28.5     20       360      0.1      0                

  
  ERROR 209: undefined object Rain2 at line 753 of [SUBCATCHMENT] section:
    F17#1            Rain2            F17              19.5     20       400      0.1      0                

  
  ERROR 209: undefined object Rain2 at line 754 of [SUBCATCHMENT] section:
    F45#1            Rain2            F45              14       20       180      0.7      0                

  
  ERROR 209: undefined object Rain2 at line 755 of [SUBCATCHMENT] section:
    H213#1           Rain2            H213             5        25       60       0.3      0                

  
  ERROR 209: undefined object Rain2 at line 756 of [SUBCATCHMENT] section:
    H209#1           Rain2            H209             4        25       60       0.2      0                

  
  ERROR 209: undefined object Rain2 at line 757 of [SUBCATCHMENT] section:
    H198#1           Rain2            H198             5        25       70       0.4      0                

  
  ERROR 209: undefined object Rain2 at line 758 of [SUBCATCHMENT] section:
    H143#1           Rain2            H143             3        25       25       0.1      0                

  
  ERROR 209: undefined object Rain2 at line 759 of [SUBCATCHMENT] section:
    F110#1           Rain2            F110             3.6      32       370      10       0                

  
  ERROR 209: undefined object Rain2 at line 760 of [SUBCATCHMENT] section:
    G135#1           Rain2            G135             5        20       100      1        0                

  
  ERROR 209: undefined object Rain2 at line 761 of [SUBCATCHMENT] section:
    C58#1            Rain2            C58              5        20       600      3        0                

  
  ERROR 209: undefined object Rain2 at line 762 of [SUBCATCHMENT] section:
    C61#1            Rain2            C61              6        25       625      7        0                

  
  ERROR 209: undefined object Rain2 at line 763 of [SUBCATCHMENT] section:
    C66#1            Rain2            C66              7        30       550      7        0                

  
  ERROR 209: undefined object Rain2 at line 764 of [SUBCATCHMENT] section:
    C158#1           Rain2            C158             17.5     20       800      12       0                

  
  ERROR 209: undefined object Rain2 at line 765 of [SUBCATCHMENT] section:
    C116#1           Rain2            C116             10       25       550      1        0                

  
  ERROR 209: undefined object Rain2 at line 766 of [SUBCATCHMENT] section:
    C112#1           Rain2            C112             10       20       550      1        0                

  
  ERROR 209: undefined object Rain2 at line 767 of [SUBCATCHMENT] section:
    C17#1            Rain2            C17              4        25       625      5        0                

  
  ERROR 209: undefined object Rain2 at line 768 of [SUBCATCHMENT] section:
    F91#1            Rain2            F91              4.6      32       570      8        0                

  
  ERROR 209: undefined object Rain2 at line 769 of [SUBCATCHMENT] section:
    F86#1            Rain2            F86              10.5     100      4000     20       0                

  
  ERROR 209: undefined object Rain2 at line 770 of [SUBCATCHMENT] section:
    L116#1           Rain2            L116             8.5      30       115      2        0                

  
  ERROR 209: undefined object Rain2 at line 771 of [SUBCATCHMENT] section:
    H156#1           Rain2            H156             2        25       80       0.5      0                

  
  ERROR 209: undefined object Rain2 at line 772 of [SUBCATCHMENT] section:
    F14#1            Rain2            F14              16.3     20       165      1.2      0                

  
  ERROR 209: undefined object Rain2 at line 773 of [SUBCATCHMENT] section:
    C28#1            Rain2            C28              15       20       160      4.8      0                

  
  ERROR 209: undefined object Rain2 at line 774 of [SUBCATCHMENT] section:
    C179#1           Rain2            C179             8.4      20       160      1.8      0                

  
  ERROR 209: undefined object Rain2 at line 775 of [SUBCATCHMENT] section:
    C186#1           Rain2            C186             11.4     25       451.1    1.4      0                

  
  ERROR 209: undefined object Rain2 at line 776 of [SUBCATCHMENT] section:
    C185#1           Rain2            C185             8.8      20       180      4.3      0                

  
  ERROR 209: undefined object Rain2 at line 777 of [SUBCATCHMENT] section:
    C222#1           Rain2            C222             5.2      25       120      10       0                

  
  ERROR 209: undefined object Rain2 at line 778 of [SUBCATCHMENT] section:
    O71#1            Rain2            O71              4        20       40       1        0                

  
  ERROR 209: undefined object Rain2 at line 779 of [SUBCATCHMENT] section:
    O2#1             Rain2            O2               3        20       40       1        0                


  Analysis begun on:  Wed Jan 02 08:39:41 2019
  Analysis ended on:  Wed Jan 02 08:39:41 2019
  Total elapsed time: < 1 sec