
  EPA STORM WATER MANAGEMENT MODEL - VERSION 5.1 (Build 5.1.012)
  --------------------------------------------------------------

  
  *************
  Element Count
  *************
  Number of rain gages ...... 0
  Number of subcatchments ... 0
  Number of nodes ........... 6
  Number of links ........... 3
  Number of pollutants ...... 0
  Number of land uses ....... 0
  
  
  ************
  Node Summary
  ************
                                           Invert      Max.    Ponded    External
  Name                 Type                 Elev.     Depth      Area    Inflow  
  -------------------------------------------------------------------------------
  1                    JUNCTION             10.00    100.00       0.0    Yes
  2                    JUNCTION             10.00    100.00       0.0    Yes
  3                    JUNCTION             10.00    100.00       0.0    Yes
  4                    OUTFALL               9.00    100.00       0.0
  5                    OUTFALL               9.00    100.00       0.0
  6                    OUTFALL               9.00    100.00       0.0
  
  
  ************
  Link Summary
  ************
  Name             From Node        To Node          Type            Length    %Slope Roughness
  ---------------------------------------------------------------------------------------------
  LeftHill         1                4                CONDUIT          100.0    1.0001    0.0150
  EvenHills        2                5                CONDUIT          100.0    1.0001    0.0150
  RightHills       3                6                CONDUIT          100.0    1.0001    0.0150
  
  
  *********************
  Cross Section Summary
  *********************
                                        Full     Full     Hyd.     Max.   No. of     Full
  Conduit          Shape               Depth     Area     Rad.    Width  Barrels     Flow
  ---------------------------------------------------------------------------------------
  LeftHill         Left               100.00  2675.00    60.18    30.00        1 406983.15
  EvenHills        Even               100.00  2450.00    60.01    30.00        1 372051.21
  RightHills       Right              100.00  2675.00    53.52    30.00        1 376361.44
  
  
  
  ****************
  Transect Summary
  ****************

  Transect Even
  Area:  
              0.0098     0.0229     0.0388     0.0553     0.0720 
              0.0888     0.1058     0.1230     0.1404     0.1579 
              0.1756     0.1935     0.2115     0.2297     0.2481 
              0.2667     0.2854     0.3043     0.3234     0.3426 
              0.3621     0.3817     0.4014     0.4214     0.4415 
              0.4617     0.4822     0.5028     0.5236     0.5446 
              0.5657     0.5870     0.6085     0.6302     0.6520 
              0.6740     0.6962     0.7185     0.7410     0.7637 
              0.7866     0.8096     0.8328     0.8562     0.8797 
              0.9034     0.9273     0.9514     0.9756     1.0000 
  Hrad:  
              0.0254     0.0436     0.0653     0.0923     0.1190 
              0.1453     0.1712     0.1967     0.2218     0.2465 
              0.2709     0.2950     0.3187     0.3420     0.3650 
              0.3877     0.4101     0.4322     0.4539     0.4753 
              0.4965     0.5173     0.5379     0.5581     0.5781 
              0.5978     0.6173     0.6365     0.6554     0.6741 
              0.6925     0.7107     0.7286     0.7463     0.7637 
              0.7810     0.7980     0.8147     0.8313     0.8476 
              0.8638     0.8797     0.8954     0.9109     0.9263 
              0.9414     0.9563     0.9711     0.9856     1.0000 
  Width: 
              0.4667     0.6000     0.6702     0.6772     0.6842 
              0.6912     0.6982     0.7053     0.7123     0.7193 
              0.7263     0.7333     0.7404     0.7474     0.7544 
              0.7614     0.7684     0.7754     0.7825     0.7895 
              0.7965     0.8035     0.8105     0.8175     0.8246 
              0.8316     0.8386     0.8456     0.8526     0.8596 
              0.8667     0.8737     0.8807     0.8877     0.8947 
              0.9018     0.9088     0.9158     0.9228     0.9298 
              0.9368     0.9439     0.9509     0.9579     0.9649 
              0.9719     0.9789     0.9860     0.9930     1.0000 

  Transect Left
  Area:  
              0.0090     0.0209     0.0357     0.0522     0.0703 
              0.0893     0.1083     0.1274     0.1465     0.1658 
              0.1851     0.2045     0.2240     0.2435     0.2632 
              0.2829     0.3027     0.3225     0.3425     0.3625 
              0.3826     0.4028     0.4231     0.4434     0.4638 
              0.4843     0.5049     0.5256     0.5463     0.5671 
              0.5880     0.6090     0.6301     0.6512     0.6724 
              0.6937     0.7151     0.7365     0.7580     0.7796 
              0.8013     0.8231     0.8449     0.8668     0.8888 
              0.9109     0.9331     0.9553     0.9776     1.0000 
  Hrad:  
              0.0254     0.0435     0.0646     0.0886     0.1099 
              0.1310     0.1525     0.1741     0.1958     0.2175 
              0.2392     0.2607     0.2822     0.3035     0.3248 
              0.3460     0.3670     0.3879     0.4088     0.4295 
              0.4501     0.4705     0.4909     0.5112     0.5313 
              0.5513     0.5713     0.5911     0.6108     0.6304 
              0.6498     0.6692     0.6885     0.7076     0.7267 
              0.7456     0.7644     0.7832     0.8018     0.8203 
              0.8387     0.8571     0.8753     0.8934     0.9114 
              0.9293     0.9471     0.9649     0.9825     1.0000 
  Width: 
              0.4667     0.6000     0.7018     0.7719     0.8421 
              0.8456     0.8491     0.8526     0.8561     0.8596 
              0.8632     0.8667     0.8702     0.8737     0.8772 
              0.8807     0.8842     0.8877     0.8912     0.8947 
              0.8982     0.9018     0.9053     0.9088     0.9123 
              0.9158     0.9193     0.9228     0.9263     0.9298 
              0.9333     0.9368     0.9404     0.9439     0.9474 
              0.9509     0.9544     0.9579     0.9614     0.9649 
              0.9684     0.9719     0.9754     0.9789     0.9825 
              0.9860     0.9895     0.9930     0.9965     1.0000 

  Transect Right
  Area:  
              0.0090     0.0209     0.0357     0.0522     0.0703 
              0.0893     0.1083     0.1274     0.1465     0.1658 
              0.1851     0.2045     0.2240     0.2435     0.2632 
              0.2829     0.3027     0.3225     0.3425     0.3625 
              0.3826     0.4028     0.4231     0.4434     0.4638 
              0.4843     0.5049     0.5256     0.5463     0.5671 
              0.5880     0.6090     0.6301     0.6512     0.6724 
              0.6937     0.7151     0.7365     0.7580     0.7796 
              0.8013     0.8231     0.8449     0.8668     0.8888 
              0.9109     0.9331     0.9553     0.9776     1.0000 
  Hrad:  
              0.0285     0.0489     0.0727     0.0996     0.1236 
              0.1464     0.1691     0.1916     0.2138     0.2358 
              0.2576     0.2792     0.3007     0.3219     0.3430 
              0.3639     0.3846     0.4052     0.4257     0.4460 
              0.4662     0.4862     0.5061     0.5259     0.5456 
              0.5651     0.5845     0.6038     0.6229     0.6420 
              0.6609     0.6797     0.6984     0.7170     0.7355 
              0.7538     0.7721     0.7902     0.8083     0.8262 
              0.8441     0.8618     0.8794     0.8969     0.9144 
              0.9317     0.9489     0.9660     0.9831     1.0000 
  Width: 
              0.4667     0.6000     0.7018     0.7719     0.8421 
              0.8456     0.8491     0.8526     0.8561     0.8596 
              0.8632     0.8667     0.8702     0.8737     0.8772 
              0.8807     0.8842     0.8877     0.8912     0.8947 
              0.8982     0.9018     0.9053     0.9088     0.9123 
              0.9158     0.9193     0.9228     0.9263     0.9298 
              0.9333     0.9368     0.9404     0.9439     0.9474 
              0.9509     0.9544     0.9579     0.9614     0.9649 
              0.9684     0.9719     0.9754     0.9789     0.9825 
              0.9860     0.9895     0.9930     0.9965     1.0000 
  
  
  *********************************************************
  NOTE: The summary statistics displayed in this report are
  based on results found at every computational time step,  
  not just on results from each reporting time step.
  *********************************************************
  
  ****************
  Analysis Options
  ****************
  Flow Units ............... CFS
  Process Models:
    Rainfall/Runoff ........ NO
    RDII ................... NO
    Snowmelt ............... NO
    Groundwater ............ NO
    Flow Routing ........... YES
    Ponding Allowed ........ NO
    Water Quality .......... NO
  Flow Routing Method ...... DYNWAVE
  Starting Date ............ 03/24/2013 00:00:00
  Ending Date .............. 03/24/2013 06:00:00
  Antecedent Dry Days ...... 0.0
  Report Time Step ......... 00:15:00
  Routing Time Step ........ 30.00 sec
  Variable Time Step ....... YES
  Maximum Trials ........... 8
  Number of Threads ........ 1
  Head Tolerance ........... 0.005000 ft
  
  
  *********************
  Control Actions Taken
  *********************

  
  **************************        Volume        Volume
  Flow Routing Continuity        acre-feet      10^6 gal
  **************************     ---------     ---------
  Dry Weather Inflow .......         0.000         0.000
  Wet Weather Inflow .......         0.000         0.000
  Groundwater Inflow .......         0.000         0.000
  RDII Inflow ..............         0.000         0.000
  External Inflow ..........       148.753        48.473
  External Outflow .........       148.693        48.454
  Flooding Loss ............         0.000         0.000
  Evaporation Loss .........         0.000         0.000
  Exfiltration Loss ........         0.000         0.000
  Initial Stored Volume ....         0.000         0.000
  Final Stored Volume ......         0.081         0.026
  Continuity Error (%) .....        -0.014
  
  
  ***************************
  Time-Step Critical Elements
  ***************************
  None
  
  
  ********************************
  Highest Flow Instability Indexes
  ********************************
  All links are stable.
  
  
  *************************
  Routing Time Step Summary
  *************************
  Minimum Time Step           :    29.50 sec
  Average Time Step           :    29.96 sec
  Maximum Time Step           :    30.00 sec
  Percent in Steady State     :     0.00
  Average Iterations per Step :     3.19
  Percent Not Converging      :     0.55
  
  
  ******************
  Node Depth Summary
  ******************
  
  ---------------------------------------------------------------------------------
                                 Average  Maximum  Maximum  Time of Max    Reported
                                   Depth    Depth      HGL   Occurrence   Max Depth
  Node                 Type         Feet     Feet     Feet  days hr:min        Feet
  ---------------------------------------------------------------------------------
  1                    JUNCTION     1.11     1.26    11.26     0  00:00        1.11
  2                    JUNCTION     1.11     1.26    11.26     0  00:00        1.11
  3                    JUNCTION     1.11     1.26    11.26     0  00:00        1.11
  4                    OUTFALL      0.98     1.16    10.16     0  00:00        0.98
  5                    OUTFALL      0.98     1.16    10.16     0  00:00        0.98
  6                    OUTFALL      0.98     1.16    10.16     0  00:00        0.98
  
  
  *******************
  Node Inflow Summary
  *******************
  
  -------------------------------------------------------------------------------------------------
                                  Maximum  Maximum                  Lateral       Total        Flow
                                  Lateral    Total  Time of Max      Inflow      Inflow     Balance
                                   Inflow   Inflow   Occurrence      Volume      Volume       Error
  Node                 Type           CFS      CFS  days hr:min    10^6 gal    10^6 gal     Percent
  -------------------------------------------------------------------------------------------------
  1                    JUNCTION    100.00   100.00     0  00:00        16.2        16.2       0.041
  2                    JUNCTION    100.00   100.00     0  00:00        16.2        16.2       0.041
  3                    JUNCTION    100.00   100.00     0  00:00        16.2        16.2       0.041
  4                    OUTFALL       0.00   132.79     0  00:00           0        16.2       0.000
  5                    OUTFALL       0.00   132.79     0  00:00           0        16.2       0.000
  6                    OUTFALL       0.00   132.79     0  00:00           0        16.2       0.000
  
  
  **********************
  Node Surcharge Summary
  **********************
  
  No nodes were surcharged.
  
  
  *********************
  Node Flooding Summary
  *********************
  
  No nodes were flooded.
  
  
  ***********************
  Outfall Loading Summary
  ***********************
  
  -----------------------------------------------------------
                         Flow       Avg       Max       Total
                         Freq      Flow      Flow      Volume
  Outfall Node           Pcnt       CFS       CFS    10^6 gal
  -----------------------------------------------------------
  4                    100.00     99.89    132.79      16.150
  5                    100.00     99.89    132.79      16.150
  6                    100.00     99.89    132.79      16.150
  -----------------------------------------------------------
  System               100.00    299.68    398.38      48.450
  
  
  ********************
  Link Flow Summary
  ********************
  
  -----------------------------------------------------------------------------
                                 Maximum  Time of Max   Maximum    Max/    Max/
                                  |Flow|   Occurrence   |Veloc|    Full    Full
  Link                 Type          CFS  days hr:min    ft/sec    Flow   Depth
  -----------------------------------------------------------------------------
  LeftHill             CHANNEL    132.79     0  00:00     10.03    0.00    0.01
  EvenHills            CHANNEL    132.79     0  00:00     10.03    0.00    0.01
  RightHills           CHANNEL    132.79     0  00:00     10.03    0.00    0.01
  
  
  ***************************
  Flow Classification Summary
  ***************************
  
  -------------------------------------------------------------------------------------
                      Adjusted    ---------- Fraction of Time in Flow Class ---------- 
                       /Actual         Up    Down  Sub   Sup   Up    Down  Norm  Inlet 
  Conduit               Length    Dry  Dry   Dry   Crit  Crit  Crit  Crit  Ltd   Ctrl  
  -------------------------------------------------------------------------------------
  LeftHill                1.00   0.00  0.00  0.00  0.00  1.00  0.00  0.00  0.00  0.00
  EvenHills               1.00   0.00  0.00  0.00  0.00  1.00  0.00  0.00  0.00  0.00
  RightHills              1.00   0.00  0.00  0.00  0.00  1.00  0.00  0.00  0.00  0.00
  
  
  *************************
  Conduit Surcharge Summary
  *************************
  
  No conduits were surcharged.
  

  Analysis begun on:  Wed Jan 02 08:39:41 2019
  Analysis ended on:  Wed Jan 02 08:39:41 2019
  Total elapsed time: < 1 sec