
  EPA STORM WATER MANAGEMENT MODEL - VERSION 5.1 (Build 5.1.012)
  --------------------------------------------------------------

  Scenario Run :  BASE 
  Example User5 
  
  
  *********************************************************
  NOTE: The summary statistics displayed in this report are
  based on results found at every computational time step,  
  not just on results from each reporting time step.
  *********************************************************
  
  ****************
  Analysis Options
  ****************
  Flow Units ............... CFS
  Process Models:
    Rainfall/Runoff ........ YES
    RDII ................... NO
    Snowmelt ............... NO
    Groundwater ............ NO
    Flow Routing ........... YES
    Ponding Allowed ........ NO
    Water Quality .......... NO
  Infiltration Method ...... HORTON
  Flow Routing Method ...... DYNWAVE
  Starting Date ............ 08/11/1998 00:00:00
  Ending Date .............. 08/11/1998 08:59:00
  Antecedent Dry Days ...... 0.0
  Report Time Step ......... 00:05:00
  Wet Time Step ............ 00:01:00
  Dry Time Step ............ 00:01:00
  Routing Time Step ........ 30.00 sec
  Variable Time Step ....... YES
  Maximum Trials ........... 8
  Number of Threads ........ 1
  Head Tolerance ........... 0.005000 ft
  
  
  **************************        Volume         Depth
  Runoff Quantity Continuity     acre-feet        inches
  **************************     ---------       -------
  Total Precipitation ......       287.426         2.930
  Evaporation Loss .........         2.735         0.028
  Infiltration Loss ........       108.755         1.109
  Surface Runoff ...........       173.597         1.770
  Final Storage ............         2.406         0.025
  Continuity Error (%) .....        -0.023
  
  
  **************************        Volume        Volume
  Flow Routing Continuity        acre-feet      10^6 gal
  **************************     ---------     ---------
  Dry Weather Inflow .......         0.000         0.000
  Wet Weather Inflow .......       173.407        56.507
  Groundwater Inflow .......         0.000         0.000
  RDII Inflow ..............         0.000         0.000
  External Inflow ..........       121.449        39.576
  External Outflow .........       197.640        64.404
  Flooding Loss ............         0.000         0.000
  Evaporation Loss .........         0.142         0.046
  Exfiltration Loss ........         0.000         0.000
  Initial Stored Volume ....         3.241         1.056
  Final Stored Volume ......       106.913        34.839
  Continuity Error (%) .....        -2.214
  
  
  *************************
  Highest Continuity Errors
  *************************
  Node 3SB22 (53.47%)
  Node 4SB21 (33.82%)
  Node 2SB21 (24.17%)
  Node 3SB21 (7.46%)
  Node 5SB21_OF (7.45%)
  
  
  ***************************
  Time-Step Critical Elements
  ***************************
  Link BRAD_OUT (78.34%)
  Link DEERWPIPE (6.78%)
  Link 789PIPE (5.67%)
  Link LIB_5 (1.86%)
  Link LIB_7 (1.86%)
  
  
  ********************************
  Highest Flow Instability Indexes
  ********************************
  Link 54INCH_2 (67)
  Link 812PIPE (67)
  Link 771PIPE (64)
  Link 815PIPE1 (61)
  Link 36INCH_2 (59)
  
  
  *************************
  Routing Time Step Summary
  *************************
  Minimum Time Step           :     0.50 sec
  Average Time Step           :     1.95 sec
  Maximum Time Step           :    30.00 sec
  Percent in Steady State     :    -0.00
  Average Iterations per Step :     2.05
  Percent Not Converging      :     0.19
  
  
  ***************************
  Subcatchment Runoff Summary
  ***************************
  
  --------------------------------------------------------------------------------------------------------
                            Total      Total      Total      Total      Total       Total     Peak  Runoff
                           Precip      Runon       Evap      Infil     Runoff      Runoff   Runoff   Coeff
  Subcatchment                 in         in         in         in         in    10^6 gal      CFS
  --------------------------------------------------------------------------------------------------------
  0.10_UP#1                  2.93       0.00       0.03       1.30       1.58        4.85   190.21   0.540
  10SB11#1                   2.93       0.00       0.02       1.15       1.74        0.36    19.04   0.593
  10SB14#1                   2.93       0.00       0.03       0.73       2.11        0.49    16.74   0.721
  10SB17#1                   2.93       0.00       0.02       1.52       1.38        0.27     9.34   0.471
  10SB6#1                    2.93       0.00       0.03       0.43       2.39        0.58    21.37   0.817
  1121#1                     2.93       0.00       0.03       1.21       1.67        0.97    36.00   0.570
  11SB1#1                    2.93       0.00       0.03       0.73       2.13        0.36    15.65   0.726
  11SB11#1                   2.93       0.00       0.02       1.15       1.74        0.35    17.75   0.593
  11SB14_OF#1                2.93       0.00       0.03       1.71       1.19        0.59    15.34   0.407
  11SB14_OF#2                2.93       0.00       0.03       0.78       2.09        0.95    45.01   0.714
  11SB17#1                   2.93       0.00       0.02       1.14       1.75        0.23    12.01   0.596
  11SB6#1                    2.93       0.00       0.03       0.85       2.01        0.37    16.27   0.686
  12SB1#1                    2.93       0.00       0.03       1.06       1.81        0.31    12.34   0.618
  12SB11#1                   2.93       0.00       0.03       0.43       2.41        0.41    17.74   0.822
  12SB6#1                    2.93       0.00       0.03       0.18       2.67        0.32    24.55   0.910
  13SB1#1                    2.93       0.00       0.03       1.10       1.79        0.37    17.63   0.609
  13SB11#1                   2.93       0.00       0.02       1.23       1.66        0.82    39.58   0.568
  13SB17#1                   2.93       0.00       0.03       1.84       1.05        0.10     2.06   0.358
  13SB6#1                    2.93       0.00       0.03       1.07       1.81        0.61    26.90   0.617
  14SB1#1                    2.93       0.00       0.03       1.09       1.77        0.48    16.28   0.603
  14SB11#1                   2.93       0.00       0.03       1.26       1.62        0.50    20.65   0.554
  14SB17#1                   2.93       0.00       0.03       1.30       1.58        0.19     7.24   0.539
  14SB6#1                    2.93       0.00       0.03       1.61       1.29        0.17     5.05   0.442
  15SB1#1                    2.93       0.00       0.03       1.00       1.87        0.21    10.34   0.639
  15SB11#1                   2.93       0.00       0.03       1.24       1.65        0.76    32.03   0.562
  15SB6#1                    2.93       0.00       0.03       0.90       1.97        0.57    30.30   0.674
  16SB11#1                   2.93       0.00       0.03       1.09       1.78        1.23    52.12   0.608
  16SB17#1                   2.93       0.00       0.03       1.27       1.62        0.18     7.93   0.552
  16SB6#1                    2.93       0.00       0.03       0.90       1.98        0.43    21.81   0.674
  17SB11#1                   2.93       0.00       0.03       1.10       1.77        1.15    46.00   0.605
  17SB11#2                   2.93       0.00       0.03       1.33       1.56        1.58    65.74   0.532
  17SB11#3                   2.93       0.00       0.03       0.57       2.30        0.57    46.53   0.785
  17SB17#1                   2.93       0.00       0.03       1.60       1.28        0.32     8.94   0.437
  17SB6#1                    2.93       0.00       0.03       0.69       2.17        0.21    10.76   0.739
  18SB1#1                    2.93       0.00       0.03       0.80       2.07        0.17     9.02   0.705
  18SB6#1                    2.93       0.00       0.03       1.16       1.73        0.22    10.14   0.589
  19SB1#1                    2.93       0.00       0.03       1.07       1.81        0.27    12.26   0.616
  19SB6#1                    2.93       0.00       0.02       1.09       1.80        0.24    13.81   0.613
  1SB14#1                    2.93       0.00       0.03       0.94       1.94        0.18    10.83   0.661
  1SB19#1                    2.93       0.00       0.04       0.74       2.12        0.37    16.15   0.724
  1SB20#1                    2.93       0.00       0.03       0.83       2.03        0.25    10.91   0.693
  1SB21#1                    2.93       0.00       0.03       0.85       2.03        0.19    10.99   0.692
  1SB22#1                    2.93       0.00       0.03       0.89       1.98        0.22    10.60   0.677
  1SB23#1                    2.93       0.00       0.03       0.86       2.01        0.42    20.14   0.685
  1SB4#1                     2.93       0.00       0.02       0.86       2.02        0.12     8.27   0.690
  1SB5#1                     2.93       0.00       0.03       0.90       1.97        0.29    15.42   0.673
  1SB7#1                     2.93       0.00       0.02       1.24       1.65        0.25    12.37   0.564
  1SB9#1                     2.93       0.00       0.03       1.20       1.68        0.41    18.25   0.574
  20SB1#1                    2.93       0.00       0.03       1.11       1.78        0.43    21.36   0.607
  20SB6#1                    2.93       0.00       0.02       1.09       1.80        0.18    11.19   0.615
  21SB1#1                    2.93       0.00       0.03       1.18       1.71        0.53    22.72   0.582
  21SB6#1                    2.93       0.00       0.03       1.01       1.87        0.23    12.48   0.639
  22SB1#1                    2.93       0.00       0.03       1.04       1.84        0.28    13.81   0.627
  22SB6#1                    2.93       0.00       0.03       0.96       1.92        0.28    15.91   0.655
  23SB1#1                    2.93       0.00       0.03       1.23       1.64        0.47    15.64   0.558
  23SB6#1                    2.93       0.00       0.03       0.86       2.02        0.37    20.96   0.688
  24SB1#1                    2.93       0.00       0.02       0.92       1.97        0.20    14.04   0.672
  24SB6#1                    2.93       0.00       0.03       0.99       1.89        0.49    25.79   0.643
  25SB1#1                    2.93       0.00       0.03       1.06       1.81        0.59    23.29   0.617
  25SB6#1                    2.93       0.00       0.03       1.02       1.86        0.39    19.74   0.634
  26SB1#1                    2.93       0.00       0.02       1.08       1.80        0.20    11.53   0.616
  26SB6#1                    2.93       0.00       0.02       0.94       1.94        0.14     8.40   0.663
  27SB1#1                    2.93       0.00       0.02       1.01       1.87        0.25    13.97   0.639
  28SB1#1                    2.93       0.00       0.03       1.02       1.85        0.51    20.81   0.631
  2SB1#1                     2.93       0.00       0.03       0.26       2.49        0.21     5.27   0.850
  2SB11#1                    2.93       0.00       0.04       0.52       2.31        0.81    30.07   0.790
  2SB11#2                    2.93       0.00       0.03       0.69       2.17        1.00    52.83   0.742
  2SB14#1                    2.93       0.00       0.03       1.26       1.63        0.71    32.21   0.556
  2SB17#1                    2.93       0.00       0.04       0.83       2.03        0.51    21.06   0.693
  2SB19#1                    2.93       0.00       0.02       1.67       1.24        0.11     3.36   0.422
  2SB20_OF#1                 2.93       0.00       0.03       0.89       1.98        0.33    18.61   0.676
  2SB21#1                    2.93       0.00       0.03       1.54       1.35        0.21     6.67   0.462
  2SB22#1                    2.93       0.00       0.03       1.64       1.25        0.20     5.37   0.428
  2SB23#1                    2.93       0.00       0.02       1.07       1.81        0.32    17.41   0.619
  2SB3#1                     2.93       0.00       0.02       0.96       1.92        0.13     8.37   0.655
  2SB4#1                     2.93       0.00       0.03       0.85       2.02        0.08     5.08   0.691
  2SB5#1                     2.93       0.00       0.03       0.89       1.98        0.18     8.67   0.675
  2SB7#1                     2.93       0.00       0.03       0.94       1.94        0.08     4.54   0.661
  31SB1#1                    2.93       0.00       0.03       0.71       2.13        0.62    21.95   0.728
  32SB1#1                    2.93       0.00       0.03       0.83       2.03        0.23     9.30   0.691
  33SB1#1                    2.93       0.00       0.03       1.00       1.88        0.23    11.32   0.641
  34SB1#1                    2.93       0.00       0.03       0.89       1.97        0.47    18.64   0.672
  35SB1#1                    2.93       0.00       0.03       1.00       1.88        0.29    14.94   0.642
  37SB1#1                    2.93       0.00       0.02       1.08       1.80        0.17     9.54   0.616
  38SB1#1                    2.93       0.00       0.03       0.95       1.91        0.19     7.22   0.653
  39SB1#1                    2.93       0.00       0.03       1.03       1.84        0.45    20.07   0.628
  3SB1#1                     2.93       0.00       0.03       1.15       1.72        0.33    12.90   0.587
  3SB14#1                    2.93       0.00       0.02       1.20       1.69        0.28    13.73   0.577
  3SB17#1                    2.93       0.00       0.03       0.85       2.02        0.35    16.24   0.688
  3SB21#1                    2.93       0.00       0.03       1.50       1.39        0.16     5.45   0.476
  3SB23#1                    2.93       0.00       0.03       0.96       1.92        0.31    16.80   0.655
  3SB3#1                     2.93       0.00       0.02       0.79       2.09        0.13     9.67   0.712
  3SB6#1                     2.93       0.00       0.03       1.04       1.84        0.21    10.81   0.628
  3SB7#1                     2.93       0.00       0.02       1.26       1.63        0.09     4.54   0.557
  3SB9#1                     2.93       0.00       0.02       1.45       1.46        0.26    11.10   0.497
  40SB1#1                    2.93       0.00       0.03       1.22       1.66        0.70    32.25   0.568
  41SB1#1                    2.93       0.00       0.03       1.72       1.18        0.45    12.56   0.403
  43SB1#1                    2.93       0.00       0.03       0.81       2.06        0.25    13.39   0.704
  44SB1#1                    2.93       0.00       0.03       1.14       1.73        0.28     9.73   0.589
  45SB1#1                    2.93       0.00       0.03       1.14       1.75        0.25    11.51   0.596
  46SB1#1                    2.93       0.00       0.03       1.07       1.81        0.31    14.29   0.617
  49SB1#1                    2.93       0.00       0.02       1.40       1.50        0.53    21.78   0.511
  4SB1#1                     2.93       0.00       0.03       1.33       1.54        0.46    15.77   0.527
  4SB11#1                    2.93       0.00       0.04       0.50       2.34        0.73    32.52   0.799
  4SB14#1                    2.93       0.00       0.02       1.12       1.77        0.26    15.57   0.603
  4SB17#1                    2.93       0.00       0.02       0.97       1.91        0.36    20.76   0.652
  4SB19_OF#1                 2.93       0.00       0.02       1.41       1.50        0.11     7.47   0.512
  4SB23#1                    2.93       0.00       0.03       0.92       1.95        0.22     9.99   0.664
  4SB3#1                     2.93       0.00       0.03       0.96       1.91        0.15     7.81   0.653
  4SB5_OF#1                  2.93       0.00       0.02       1.24       1.67        0.15    11.61   0.569
  4SB6#1                     2.93       0.00       0.03       1.10       1.78        0.25    10.94   0.606
  4SB9#1                     2.93       0.00       0.02       1.42       1.48        0.61    24.19   0.505
  51SB1#1                    2.93       0.00       0.02       0.77       2.11        0.07     5.76   0.720
  5SB1#1                     2.93       0.00       0.03       1.29       1.60        0.70    30.55   0.546
  5SB11#1                    2.93       0.00       0.03       0.53       2.32        0.57    28.33   0.793
  5SB14#1                    2.93       0.00       0.02       1.61       1.30        0.13     4.48   0.443
  5SB17#1                    2.93       0.00       0.03       1.08       1.80        0.41    18.47   0.615
  5SB3#1                     2.93       0.00       0.02       0.98       1.90        0.13     7.58   0.648
  5SB6#1                     2.93       0.00       0.02       1.35       1.55        0.24    13.02   0.530
  5SB7_OF#1                  2.93       0.00       0.02       1.39       1.52        0.26    17.39   0.519
  6SB1#1                     2.93       0.00       0.02       1.56       1.34        0.27     9.41   0.459
  6SB11#1                    2.93       0.00       0.03       0.47       2.35        0.60    21.44   0.804
  6SB14#1                    2.93       0.00       0.03       0.81       2.06        0.18    10.78   0.704
  6SB17#1                    2.93       0.00       0.02       1.19       1.70        0.25    12.73   0.579
  6SB3#1                     2.93       0.00       0.02       1.13       1.76        0.16     9.09   0.601
  7SB1#1                     2.93       0.00       0.03       1.27       1.62        0.45    19.06   0.552
  7SB11#1                    2.93       0.00       0.03       0.34       2.50        0.28    16.05   0.854
  7SB14#1                    2.93       0.00       0.02       1.55       1.36        0.18     6.68   0.463
  7SB17#1                    2.93       0.00       0.03       1.10       1.78        0.35    16.37   0.607
  7SB6#1                     2.93       0.00       0.03       0.53       2.32        0.18     8.55   0.792
  8SB1#1                     2.93       0.00       0.03       1.43       1.45        0.40    13.55   0.495
  8SB11#1                    2.93       0.00       0.03       0.59       2.28        0.19    14.41   0.777
  8SB14#1                    2.93       0.00       0.03       0.81       2.07        0.12     7.96   0.705
  8SB17#1                    2.93       0.00       0.03       1.25       1.64        0.39    17.35   0.560
  8SB3_OF#1                  2.93       0.00       0.02       1.40       1.50        0.18     9.63   0.514
  8SB6#1                     2.93       0.00       0.03       1.26       1.63        0.30    11.27   0.556
  9SB1#1                     2.93       0.00       0.03       1.46       1.43        0.46    15.86   0.487
  9SB11#1                    2.93       0.00       0.02       1.39       1.51        0.24    10.70   0.516
  9SB14#1                    2.93       0.00       0.03       1.08       1.81        0.30    15.72   0.617
  9SB17#1                    2.93       0.00       0.02       1.34       1.56        0.23    11.41   0.534
  SB1018_OF#1                2.93       0.00       0.02       1.35       1.56        0.10     7.37   0.532
  SB1018_OF#2                2.93       0.00       0.02       1.06       1.84        0.21    18.73   0.628
  SB1018_OF#3                2.93       0.00       0.02       0.88       2.00        0.65    47.16   0.682
  SB1216_OF#1                2.93       0.00       0.03       0.75       2.12        0.43    20.99   0.722
  SB1216_OF#2                2.93       0.00       0.03       0.17       2.68        0.28    22.85   0.913
  
  
  ******************
  Node Depth Summary
  ******************
  
  ---------------------------------------------------------------------------------
                                 Average  Maximum  Maximum  Time of Max    Reported
                                   Depth    Depth      HGL   Occurrence   Max Depth
  Node                 Type         Feet     Feet     Feet  days hr:min        Feet
  ---------------------------------------------------------------------------------
  0.10_RM              JUNCTION     9.22     9.93   650.53     0  01:10        9.93
  0.10_UP              JUNCTION     9.15     9.99   650.69     0  01:09        9.99
  0.15_RM              JUNCTION     6.07     6.98   650.88     0  01:09        6.97
  102                  JUNCTION     0.41     3.10   687.60     0  00:20        3.09
  1050                 JUNCTION     3.99     4.90   678.23     0  02:20        4.90
  10SB1                JUNCTION     2.70     5.37   681.91     0  00:36        5.37
  10SB11               JUNCTION     0.22     1.19   693.99     0  00:15        1.18
  10SB14               JUNCTION     1.34     7.73   659.73     0  00:27        7.73
  10SB17               JUNCTION     0.93     6.40   672.43     0  00:30        6.40
  10SB6                JUNCTION     1.24     7.24   688.16     0  00:28        7.24
  1118                 JUNCTION     3.09     9.27   681.17     0  00:42        9.15
  1119                 JUNCTION     3.11     9.43   681.30     0  00:37        9.23
  1120                 JUNCTION     3.15     9.77   681.60     0  00:43        9.55
  1121                 JUNCTION     3.18     9.90   681.70     0  00:43        9.64
  1122                 JUNCTION     3.21     9.94   681.71     0  00:43        9.69
  1123                 JUNCTION     3.24     9.68   681.41     0  00:36        9.46
  1124                 JUNCTION     3.27     9.47   681.17     0  00:36        9.30
  1125                 JUNCTION     3.30     9.49   681.16     0  00:36        9.24
  1126                 JUNCTION     3.33     9.82   681.45     0  00:36        9.13
  1127                 JUNCTION     3.36     9.88   681.48     0  00:36        9.19
  1128                 JUNCTION     2.42     6.99   678.58     0  00:42        6.71
  11SB1                JUNCTION     0.21     0.85   683.98     0  00:22        0.85
  11SB11               JUNCTION     0.16     0.88   695.68     0  00:13        0.88
  11SB14_OF            JUNCTION     4.75     6.78   652.28     0  01:08        6.77
  11SB17               JUNCTION     0.97     7.32   664.34     0  00:44        7.32
  11SB6                JUNCTION     1.49     7.29   691.29     0  00:18        7.29
  12SB1                JUNCTION     0.20     0.78   692.78     0  00:21        0.78
  12SB11               JUNCTION     0.17     0.64   744.94     0  00:21        0.64
  12SB6                JUNCTION     0.37     2.24   692.24     0  00:07        2.16
  13SB1                JUNCTION     0.37     1.40   689.80     0  00:24        1.40
  13SB11               JUNCTION     2.11    11.30   694.10     0  00:27       11.29
  13SB17               JUNCTION     1.63    10.53   663.71     0  00:47       10.51
  13SB6                JUNCTION     0.29     1.39   697.39     0  00:20        1.39
  14SB1                JUNCTION     0.33     1.26   696.26     0  00:22        1.26
  14SB11               JUNCTION     2.03    10.84   699.29     0  00:25       10.84
  14SB17               JUNCTION     1.64    10.22   666.16     0  00:49       10.22
  14SB6                JUNCTION     0.44     1.92   695.92     0  00:20        1.92
  15SB1                JUNCTION     0.77     2.53   681.03     0  00:24        2.53
  15SB11               JUNCTION     2.04    10.94   701.69     0  00:23       10.92
  15SB17               JUNCTION     1.35     7.95   666.95     0  00:39        7.95
  15SB6                JUNCTION     0.62     3.42   703.42     0  00:15        3.42
  16SB1                JUNCTION     2.38     5.25   680.75     0  00:30        5.25
  16SB11               JUNCTION     2.08    11.39   703.54     0  00:16       11.38
  16SB17               JUNCTION     0.16     0.68   669.18     0  00:15        0.67
  16SB6                JUNCTION     1.30     6.98   692.88     0  00:20        6.98
  17SB1                JUNCTION     2.42     4.68   680.09     0  00:31        4.67
  17SB11               JUNCTION     1.97    11.41   705.01     0  00:12       11.39
  17SB17               JUNCTION     0.92     6.02   668.41     0  00:30        6.02
  17SB6                JUNCTION     1.29     7.67   700.67     0  00:17        7.67
  18SB1                JUNCTION     0.44     1.86   682.76     0  00:21        1.86
  18SB17               JUNCTION     1.56     9.32   661.13     0  00:59        9.32
  18SB6                JUNCTION     1.15     8.43   709.43     0  00:16        8.42
  19SB1                JUNCTION     0.17     0.77   683.77     0  00:16        0.77
  19SB17               JUNCTION     2.94     7.88   656.23     0  01:04        7.87
  19SB6                JUNCTION     0.16     0.75   718.75     0  00:18        0.75
  1SB11_OF             JUNCTION     4.13     8.12   658.75     0  01:06        8.11
  1SB14                JUNCTION     0.11     0.63   691.13     0  00:13        0.63
  1SB17_OF             JUNCTION     2.96     6.41   654.37     0  01:07        6.38
  1SB19                JUNCTION     0.25     0.97   670.97     0  00:21        0.96
  1SB20                JUNCTION     0.17     0.72   678.72     0  00:21        0.72
  1SB21                JUNCTION     0.18     0.63   677.63     0  00:15        0.63
  1SB22                JUNCTION     0.19     0.65   679.65     0  00:16        0.64
  1SB23                JUNCTION     0.19     0.87   682.87     0  00:16        0.87
  1SB3_MIL             JUNCTION     0.83     2.69   682.60     0  00:37        2.69
  1SB4                 JUNCTION     0.09     0.60   683.15     0  00:12        0.59
  1SB5                 JUNCTION     0.16     0.81   678.41     0  00:15        0.81
  1SB6_OF              JUNCTION     6.85     8.19   674.17     0  01:02        8.19
  1SB7                 JUNCTION     0.14     0.75   679.16     0  00:14        0.75
  1SB9                 JUNCTION     0.28     2.18   678.28     0  00:15        2.18
  20SB1                JUNCTION     0.28     1.04   689.04     0  00:21        1.04
  20SB6                JUNCTION     0.18     1.02   710.52     0  00:15        1.02
  21SB1                JUNCTION     0.27     1.26   701.76     0  00:16        1.25
  21SB6                JUNCTION     0.12     0.68   710.68     0  00:15        0.68
  22SB1                JUNCTION     0.13     0.66   708.66     0  00:15        0.66
  22SB6                JUNCTION     0.16     0.87   706.87     0  00:15        0.87
  23SB1                JUNCTION     0.21     0.69   705.69     0  00:21        0.68
  23SB6                JUNCTION     0.28     1.64   698.64     0  00:16        1.63
  24SB1                JUNCTION     0.08     0.59   706.59     0  00:12        0.58
  24SB6                JUNCTION     0.21     1.08   717.48     0  00:15        1.08
  25SB1                JUNCTION     0.21     0.83   696.83     0  00:21        0.82
  25SB6                JUNCTION     0.20     1.04   719.84     0  00:15        1.04
  26SB1                JUNCTION     0.11     0.73   697.73     0  00:12        0.72
  26SB6                JUNCTION     0.10     0.57   724.47     0  00:12        0.57
  27SB1                JUNCTION     0.18     1.15   691.15     0  00:12        1.14
  28SB1                JUNCTION     0.25     1.21   689.21     0  00:15        1.21
  29SB1                JUNCTION     0.35     1.55   685.55     0  00:17        1.55
  2SB1                 JUNCTION     0.23     0.72   699.15     0  00:30        0.72
  2SB11                JUNCTION     2.41    12.68   677.13     0  00:38       12.68
  2SB14                JUNCTION     0.39     1.80   685.50     0  00:22        1.79
  2SB17                JUNCTION     1.06     6.05   674.18     0  00:24        6.05
  2SB19                JUNCTION     0.13     0.46   669.77     0  00:30        0.46
  2SB20_OF             JUNCTION    12.14    13.69   674.17     0  01:04       13.68
  2SB21                JUNCTION     4.87     5.66   673.26     0  02:43        5.66
  2SB22                JUNCTION     2.52     3.14   673.24     0  02:41        3.14
  2SB23                JUNCTION     0.17     0.90   678.90     0  00:14        0.89
  2SB2_MIL             JUNCTION     1.03     6.85   682.45     0  00:35        5.78
  2SB3                 JUNCTION     1.46     4.83   681.96     0  00:36        4.83
  2SB4                 JUNCTION     0.20     1.04   679.59     0  00:15        1.04
  2SB5                 JUNCTION     0.14     0.63   678.23     0  00:16        0.62
  2SB6                 JUNCTION     2.82     5.19   675.67     0  00:59        5.19
  2SB7                 JUNCTION     0.10     0.53   678.49     0  00:14        0.52
  2SB9                 JUNCTION     0.19     1.13   668.13     0  00:17        1.13
  30SB1                JUNCTION     0.48     1.97   684.07     0  00:19        1.97
  31SB1                JUNCTION     0.28     0.91   684.91     0  00:22        0.91
  32SB1                JUNCTION     0.48     2.18   680.35     0  00:37        2.17
  33SB1                JUNCTION     2.16     2.92   678.24     0  02:22        2.92
  34SB1                JUNCTION     0.21     0.78   686.78     0  00:21        0.77
  35SB1                JUNCTION     0.37     1.75   681.76     0  01:00        1.75
  36SB1                JUNCTION     0.78     3.25   681.76     0  00:59        3.25
  37SB1                JUNCTION     0.59     2.42   681.76     0  00:58        2.42
  38SB1                JUNCTION     0.24     0.98   683.18     0  00:21        0.97
  39SB1                JUNCTION     0.20     0.89   687.84     0  00:16        0.89
  3SB1                 JUNCTION     0.38     1.48   698.73     0  00:21        1.46
  3SB14                JUNCTION     0.30     1.30   683.30     0  00:23        1.30
  3SB17                JUNCTION     0.28     1.29   676.29     0  00:19        1.29
  3SB19                JUNCTION     0.20     1.05   665.87     0  00:21        1.04
  3SB21                JUNCTION     3.22     3.95   673.30     0  02:44        3.88
  3SB22                JUNCTION     3.90     4.65   673.25     0  02:42        4.63
  3SB23                JUNCTION     0.39     1.75   676.41     0  00:21        1.74
  3SB3                 JUNCTION     0.39     1.40   681.96     0  00:34        1.40
  3SB5                 JUNCTION     0.32     1.40   674.33     0  01:01        1.39
  3SB6                 JUNCTION     0.26     1.32   675.71     0  00:58        1.28
  3SB7                 JUNCTION     0.30     1.44   678.26     0  01:00        1.44
  3SB9                 JUNCTION     0.40     1.56   669.19     0  00:21        1.55
  40SB1                JUNCTION     2.62     3.63   678.63     0  00:31        3.63
  41SB1                JUNCTION     3.60     4.44   678.24     0  02:20        4.44
  42SB1                JUNCTION     4.43     5.37   678.23     0  02:19        5.37
  43SB1                JUNCTION     0.21     0.76   680.16     0  00:12        0.75
  44SB1                JUNCTION     0.20     0.71   681.01     0  00:21        0.70
  45SB1                JUNCTION     0.32     1.15   679.65     0  00:22        1.15
  46SB1                JUNCTION     3.54     5.09   676.60     0  00:58        5.09
  47SB1                JUNCTION     4.06     6.21   676.12     0  00:48        6.20
  48SB1_OF             JUNCTION     4.49     7.08   676.16     0  00:46        7.07
  49SB1                JUNCTION     4.31     5.58   678.20     0  00:45        5.58
  4SB1                 JUNCTION     0.37     1.55   697.11     0  00:21        1.54
  4SB11                JUNCTION     2.68    14.02   682.42     0  00:36       14.01
  4SB14                JUNCTION     0.26     1.17   678.17     0  00:22        1.16
  4SB17                JUNCTION     0.18     1.10   679.10     0  00:13        1.09
  4SB19_OF             JUNCTION     2.73     5.64   664.07     0  01:04        5.64
  4SB21                JUNCTION     5.86     6.66   673.26     0  02:43        6.65
  4SB22_OF             JUNCTION     7.72     9.13   674.17     0  01:03        9.12
  4SB23                JUNCTION     0.16     0.73   676.90     0  00:17        0.73
  4SB3                 JUNCTION     0.13     0.64   684.26     0  00:15        0.64
  4SB5_OF              JUNCTION     6.03     7.44   674.33     0  01:02        7.42
  4SB6                 JUNCTION     0.16     0.72   680.56     0  00:16        0.72
  4SB7                 JUNCTION     0.49     2.65   678.26     0  01:01        2.65
  4SB9                 JUNCTION     0.18     0.85   677.85     0  00:15        0.84
  50SB1                JUNCTION     4.44     5.70   678.17     0  00:45        5.69
  51SB1                JUNCTION     0.23     2.18   677.38     0  00:38        2.14
  52SB1_OF             JUNCTION     4.07     7.51   677.21     0  00:45        7.51
  53SB1_OF             JUNCTION     3.28     7.54   678.24     0  00:44        7.53
  5SB1                 JUNCTION     1.32     2.58   692.00     0  00:30        2.57
  5SB11                JUNCTION     2.22    11.33   686.33     0  00:32       11.32
  5SB14                JUNCTION     0.21     1.02   670.02     0  00:13        1.02
  5SB17                JUNCTION     0.21     0.94   669.04     0  00:17        0.94
  5SB21_OF             JUNCTION     9.67    11.17   674.17     0  01:03       11.17
  5SB23                JUNCTION     0.27     1.22   675.30     0  00:22        1.21
  5SB3                 JUNCTION     0.12     0.64   683.20     0  00:14        0.63
  5SB6                 JUNCTION     1.32     5.27   681.31     0  00:29        5.27
  5SB7_OF              JUNCTION     8.38     9.82   674.17     0  01:03        9.81
  5SB9_OF              JUNCTION     2.62     4.91   660.94     0  01:05        4.91
  6SB1                 JUNCTION     0.09     0.46   704.06     0  00:30        0.46
  6SB11                JUNCTION     1.68    11.06   690.56     0  00:30       11.06
  6SB14                JUNCTION     0.15     0.73   673.73     0  00:15        0.73
  6SB17                JUNCTION     0.58     2.09   668.29     0  00:30        2.09
  6SB3                 JUNCTION     0.12     0.65   680.18     0  00:12        0.65
  745                  JUNCTION     6.11     7.43   674.17     0  01:02        7.43
  747                  JUNCTION     2.41     5.31   664.68     0  01:04        5.30
  751                  JUNCTION     0.94     1.73   673.83     0  01:04        1.73
  754                  JUNCTION     0.90     6.39   686.39     0  00:22        6.37
  756                  JUNCTION     0.92     7.00   686.27     0  00:30        7.00
  757                  JUNCTION     1.24     7.25   689.53     0  00:23        7.22
  758                  JUNCTION     1.37     7.29   690.34     0  00:20        7.29
  7SB1                 JUNCTION     1.45     3.48   687.65     0  00:30        3.47
  7SB11                JUNCTION     1.00     6.91   691.51     0  00:29        6.91
  7SB14                JUNCTION     0.11     0.50   680.50     0  00:21        0.50
  7SB17                JUNCTION     0.18     0.86   669.06     0  00:14        0.86
  7SB3                 JUNCTION     1.36     4.92   679.27     0  00:40        4.92
  7SB6                 JUNCTION     0.78     6.89   685.89     0  00:27        6.87
  800                  JUNCTION     4.81     8.13   658.00     0  01:06        8.13
  802                  JUNCTION     4.83     6.78   652.18     0  01:08        6.78
  818                  JUNCTION     3.46     7.78   678.28     0  00:44        7.51
  822                  JUNCTION     4.47     6.90   675.97     0  00:46        6.89
  824                  JUNCTION     4.77     6.42   674.82     0  00:59        6.42
  8SB1                 JUNCTION     0.49     1.18   683.18     0  00:24        1.18
  8SB11                JUNCTION     0.96     5.07   692.12     0  00:23        5.06
  8SB14                JUNCTION     0.11     0.53   681.53     0  00:18        0.53
  8SB17                JUNCTION     0.18     0.84   671.14     0  00:15        0.84
  8SB3_OF              JUNCTION     3.77     7.50   677.58     0  00:44        7.39
  8SB6                 JUNCTION     0.74     6.46   684.46     0  00:29        6.46
  9SB1                 JUNCTION     1.69     2.42   683.13     0  00:23        2.40
  9SB11                JUNCTION     0.43     1.90   693.40     0  00:22        1.90
  9SB14                JUNCTION     0.34     1.50   669.50     0  00:24        1.50
  9SB17                JUNCTION     0.14     0.79   668.79     0  00:15        0.78
  O.15_UP              JUNCTION     6.06     7.67   651.67     0  01:08        7.66
  SB1018_OF            JUNCTION     2.40     5.77   659.04     0  01:06        5.75
  SB1216_OF            JUNCTION     3.09     6.48   654.28     0  01:07        6.46
  O.O_RM               OUTFALL     12.20    12.20   650.00     0  00:00       12.20
  1SB1                 STORAGE      1.96     4.01   708.46     0  01:13        4.01
  99                   STORAGE      4.93     6.03   688.03     0  00:40        6.01
  
  
  *******************
  Node Inflow Summary
  *******************
  
  -------------------------------------------------------------------------------------------------
                                  Maximum  Maximum                  Lateral       Total        Flow
                                  Lateral    Total  Time of Max      Inflow      Inflow     Balance
                                   Inflow   Inflow   Occurrence      Volume      Volume       Error
  Node                 Type           CFS      CFS  days hr:min    10^6 gal    10^6 gal     Percent
  -------------------------------------------------------------------------------------------------
  0.10_RM              JUNCTION      0.00  1310.67     0  01:09           0        68.5       6.343
  0.10_UP              JUNCTION    190.21  1313.55     0  01:08        4.85        69.7       1.820
  0.15_RM              JUNCTION      0.00  1248.99     0  01:08           0        65.3       0.669
  102                  JUNCTION   1499.50  1499.50     0  00:20        28.8        28.7       0.100
  1050                 JUNCTION      0.00   435.95     0  00:37           0        20.8       3.434
  10SB1                JUNCTION      0.00   197.86     0  00:26           0          12      -0.198
  10SB11               JUNCTION     19.04    37.71     0  00:12       0.357       0.702      -0.287
  10SB14               JUNCTION     16.74   115.43     0  00:23       0.486        2.81      -0.151
  10SB17               JUNCTION      9.34     9.34     0  00:21       0.267       0.267       2.942
  10SB6                JUNCTION     21.37   168.77     0  00:24       0.575        3.52      -0.702
  1118                 JUNCTION      0.00  2583.59     0  00:30           0        37.1      -0.377
  1119                 JUNCTION      0.00  2592.54     0  00:34           0        32.9       0.261
  1120                 JUNCTION      0.00  2862.48     0  00:29           0        27.9       0.429
  1121                 JUNCTION     36.00  1832.86     0  00:29       0.965        26.5       0.231
  1122                 JUNCTION      0.00  1169.46     0  00:28           0        26.5       0.236
  1123                 JUNCTION      0.00  1494.02     0  00:30           0        27.1       0.187
  1124                 JUNCTION      0.00  1874.88     0  00:30           0          28       0.121
  1125                 JUNCTION      0.00  1881.03     0  00:30           0        28.2       0.396
  1126                 JUNCTION      0.00  2020.76     0  00:36           0        27.3       0.587
  1127                 JUNCTION      0.00  1027.66     0  00:36           0        26.2       0.158
  1128                 JUNCTION      0.00   902.13     0  00:36           0          26       0.004
  11SB1                JUNCTION     15.65    15.65     0  00:21       0.356       0.356      -0.714
  11SB11               JUNCTION     17.75    17.75     0  00:12       0.346       0.346       0.083
  11SB14_OF            JUNCTION     58.10  1251.82     0  01:06        1.54        66.2       0.718
  11SB17               JUNCTION     12.01    12.01     0  00:12       0.228       0.228       0.539
  11SB6                JUNCTION     16.27   157.43     0  00:18       0.372        3.01       0.649
  12SB1                JUNCTION     12.34    12.34     0  00:21       0.309       0.309      -0.421
  12SB11               JUNCTION     17.74    17.74     0  00:21       0.408       0.408       1.253
  12SB6                JUNCTION     24.55    24.55     0  00:12       0.323       0.322       0.474
  13SB1                JUNCTION     17.63    81.66     0  00:21       0.366        1.96      -0.074
  13SB11               JUNCTION     39.58   257.26     0  00:25       0.821        6.42      -0.012
  13SB17               JUNCTION      2.06    72.22     0  00:48       0.105        2.59      -0.280
  13SB6                JUNCTION     26.90    74.44     0  00:16        0.61         1.5       0.190
  14SB1                JUNCTION     16.28    52.06     0  00:21       0.482        1.29       0.410
  14SB11               JUNCTION     20.65   231.83     0  00:23       0.503        5.63       0.578
  14SB17               JUNCTION      7.24    71.00     0  00:36       0.194        2.25      -0.467
  14SB6                JUNCTION      5.05    34.65     0  00:15       0.166       0.734       0.383
  15SB1                JUNCTION     10.34   217.79     0  00:22       0.209        5.23       0.402
  15SB11               JUNCTION     32.03   235.35     0  00:15       0.756        5.24       2.330
  15SB17               JUNCTION      0.00    65.39     0  00:30           0        1.81       0.912
  15SB6                JUNCTION     30.30    30.30     0  00:15       0.566       0.566      -0.378
  16SB1                JUNCTION      0.00   238.00     0  00:24           0        5.83      -0.101
  16SB11               JUNCTION     52.12   204.61     0  00:15        1.23        4.49       0.001
  16SB17               JUNCTION      7.93     7.93     0  00:15       0.184       0.184       1.247
  16SB6                JUNCTION     21.81   115.32     0  00:17       0.428        2.31      -0.338
  17SB1                JUNCTION      0.00   295.03     0  00:31           0        15.6       0.028
  17SB11               JUNCTION    153.29   153.29     0  00:12        3.29        3.28       0.794
  17SB17               JUNCTION      8.94     8.94     0  00:21       0.315       0.315       1.993
  17SB6                JUNCTION     10.76    94.84     0  00:16       0.207        1.86      -1.263
  18SB1                JUNCTION      9.02   134.78     0  00:20       0.172        3.06      -0.112
  18SB17               JUNCTION      0.00    78.97     0  00:48           0        2.91       0.300
  18SB6                JUNCTION     10.14    85.21     0  00:15       0.215        1.65       0.185
  19SB1                JUNCTION     12.26    12.26     0  00:15       0.266       0.266      -0.526
  19SB17               JUNCTION      0.00   123.88     0  00:27           0        4.11      -0.123
  19SB6                JUNCTION     13.81    13.81     0  00:12       0.242       0.242       0.306
  1SB11_OF             JUNCTION      0.00   819.72     0  01:06           0        45.5       0.138
  1SB14                JUNCTION     10.83    10.83     0  00:12       0.184       0.184      -0.801
  1SB17_OF             JUNCTION      0.00  1172.80     0  01:06           0        61.4       0.116
  1SB19                JUNCTION     16.15    16.15     0  00:21       0.375       0.375       0.130
  1SB20                JUNCTION     10.91    10.91     0  00:21       0.252       0.252      -1.325
  1SB21                JUNCTION     10.99    10.99     0  00:15       0.194       0.194     -19.424
  1SB22                JUNCTION     10.60    10.60     0  00:15       0.224       0.224     -12.146
  1SB23                JUNCTION     20.14    20.14     0  00:15       0.419       0.419      -0.637
  1SB3_MIL             JUNCTION     19.60    19.60     0  00:10        1.41        1.41      -0.081
  1SB4                 JUNCTION      8.27     8.27     0  00:12       0.122       0.122      -0.420
  1SB5                 JUNCTION     15.42    15.42     0  00:15       0.286       0.286      -0.991
  1SB6_OF              JUNCTION      0.00  1131.83     0  00:38           0        56.5       2.616
  1SB7                 JUNCTION     12.37    12.37     0  00:12       0.245       0.245      -0.444
  1SB9                 JUNCTION     18.25    18.25     0  00:15       0.412       0.411      -0.009
  20SB1                JUNCTION     21.36    35.06     0  00:15       0.427       0.893      -0.187
  20SB6                JUNCTION     11.19    11.19     0  00:12       0.177       0.177       0.116
  21SB1                JUNCTION     22.72    36.43     0  00:15       0.527       0.807      -0.415
  21SB6                JUNCTION     12.48    12.48     0  00:15       0.234       0.234      -0.026
  22SB1                JUNCTION     13.81    13.81     0  00:15        0.28        0.28      -0.176
  22SB6                JUNCTION     15.91    28.24     0  00:15       0.282       0.515      -0.047
  23SB1                JUNCTION     15.64    15.64     0  00:21       0.468       0.468       0.144
  23SB6                JUNCTION     20.96    49.12     0  00:15       0.371       0.887      -0.104
  24SB1                JUNCTION     14.04    14.04     0  00:12       0.196       0.196      -0.021
  24SB6                JUNCTION     25.79    53.56     0  00:15       0.493        1.02       0.052
  25SB1                JUNCTION     23.29    23.29     0  00:21       0.585       0.585      -0.078
  25SB6                JUNCTION     19.74    27.90     0  00:15       0.391       0.528       0.053
  26SB1                JUNCTION     11.53    25.47     0  00:12       0.197       0.392       0.018
  26SB6                JUNCTION      8.40     8.40     0  00:12       0.137       0.136      -0.158
  27SB1                JUNCTION     13.97    39.27     0  00:12       0.245       0.637      -0.012
  28SB1                JUNCTION     20.81    58.24     0  00:15       0.507        1.14      -0.063
  29SB1                JUNCTION      0.00    80.30     0  00:15           0        1.73       0.047
  2SB1                 JUNCTION      5.27     5.27     0  00:30       0.214       0.214       0.098
  2SB11                JUNCTION     79.78   418.56     0  00:36         1.8          12       1.233
  2SB14                JUNCTION     32.21    42.67     0  00:15       0.705       0.889      -0.197
  2SB17                JUNCTION     21.06    57.21     0  00:20       0.509        1.21      -0.043
  2SB19                JUNCTION      3.36     3.36     0  00:30       0.113       0.113       0.064
  2SB20_OF             JUNCTION     18.61   908.03     0  01:00        0.33        48.2       5.776
  2SB21                JUNCTION      6.67    87.98     0  01:10       0.207        2.64      31.869
  2SB22                JUNCTION      5.37     9.65     0  01:29       0.196       0.356      72.544
  2SB23                JUNCTION     17.41    17.41     0  00:12       0.318       0.317      -0.898
  2SB2_MIL             JUNCTION      0.00  2055.42     0  00:43           0        32.4       0.468
  2SB3                 JUNCTION      8.37    53.38     0  00:15       0.132        1.95       0.273
  2SB4                 JUNCTION      5.08    13.20     0  00:12      0.0841       0.207       0.403
  2SB5                 JUNCTION      8.67     8.67     0  00:15       0.185       0.185      -0.746
  2SB6                 JUNCTION      0.00   286.66     0  00:30           0        7.03       1.469
  2SB7                 JUNCTION      4.54     4.54     0  00:15      0.0815      0.0814      -0.700
  2SB9                 JUNCTION      0.00    51.21     0  00:15           0        1.28      -0.313
  30SB1                JUNCTION      0.00   112.82     0  00:18           0        2.62       0.169
  31SB1                JUNCTION     21.95    21.95     0  00:21        0.62        0.62       0.533
  32SB1                JUNCTION      9.30   110.50     0  00:34       0.235         2.5       0.412
  33SB1                JUNCTION     11.32   144.79     0  00:37       0.227        4.28      -2.236
  34SB1                JUNCTION     18.64    18.64     0  00:21       0.471       0.471       0.614
  35SB1                JUNCTION     14.94    14.94     0  00:15       0.293       0.293      -1.298
  36SB1                JUNCTION      0.00    44.14     0  00:15           0        1.11       0.635
  37SB1                JUNCTION      9.54    35.14     0  00:17       0.172       0.814       0.229
  38SB1                JUNCTION      7.22    27.15     0  00:21       0.185        0.64      -0.350
  39SB1                JUNCTION     20.07    20.07     0  00:15       0.455       0.455      -0.141
  3SB1                 JUNCTION     12.90    18.18     0  00:21       0.328       0.541       0.002
  3SB14                JUNCTION     13.73    49.61     0  00:21        0.28        1.17       0.513
  3SB17                JUNCTION     16.24    38.29     0  00:15       0.345       0.705       0.872
  3SB19                JUNCTION      0.00    19.10     0  00:21           0       0.486       0.080
  3SB21                JUNCTION      5.45   117.44     0  01:04       0.159        4.13       8.064
  3SB22                JUNCTION      0.00    66.16     0  01:15           0        1.93     114.920
  3SB23                JUNCTION     16.80    47.53     0  00:15       0.307       0.843       0.448
  3SB3                 JUNCTION      9.67    25.72     0  00:13        0.13       0.405       0.493
  3SB5                 JUNCTION      0.00    24.39     0  00:15           0       0.487       1.224
  3SB6                 JUNCTION     10.81    21.85     0  00:14       0.213       0.465       0.580
  3SB7                 JUNCTION      4.54    22.43     0  00:14       0.093       0.421      -0.137
  3SB9                 JUNCTION     11.10    34.58     0  00:15        0.26       0.871       0.304
  40SB1                JUNCTION     32.25   318.24     0  00:30         0.7        16.3      -0.392
  41SB1                JUNCTION     12.56   465.71     0  00:37       0.455        21.2       1.971
  42SB1                JUNCTION      0.00   280.41     0  00:32           0        20.4       5.348
  43SB1                JUNCTION     13.39    13.39     0  00:15       0.252       0.252     -19.475
  44SB1                JUNCTION      9.73     9.73     0  00:21       0.275       0.275      -0.002
  45SB1                JUNCTION     11.51    21.77     0  00:17       0.247       0.522       0.167
  46SB1                JUNCTION     14.29   100.34     0  02:40        0.31        20.2       0.124
  47SB1                JUNCTION      0.00   100.38     0  02:39           0        20.1       0.154
  48SB1_OF             JUNCTION      0.00   817.16     0  00:45           0        28.8       0.383
  49SB1                JUNCTION     21.78    21.78     0  00:12       0.529       0.528       1.853
  4SB1                 JUNCTION     15.77    33.38     0  00:21       0.459           1      -0.037
  4SB11                JUNCTION     32.52   374.16     0  00:32       0.726        10.1      -0.406
  4SB14                JUNCTION     15.57    61.03     0  00:21        0.26        1.42      -0.085
  4SB17                JUNCTION     20.76    20.76     0  00:12       0.356       0.356      -1.370
  4SB19_OF             JUNCTION      7.47   794.00     0  01:04       0.108        43.5       0.124
  4SB21                JUNCTION      0.00   155.71     0  01:05           0        4.99      51.094
  4SB22_OF             JUNCTION      0.00   981.01     0  00:54           0        55.1       3.192
  4SB23                JUNCTION      9.99     9.99     0  00:15       0.216       0.216      -0.384
  4SB3                 JUNCTION      7.81     7.81     0  00:15       0.145       0.145      -1.279
  4SB5_OF              JUNCTION     11.61   921.72     0  00:45        0.15        50.4       0.459
  4SB6                 JUNCTION     10.94    10.94     0  00:15       0.248       0.248      -0.182
  4SB7                 JUNCTION      0.00    23.65     0  00:13           0       0.422       0.662
  4SB9                 JUNCTION     24.19    24.19     0  00:12        0.61        0.61      -0.263
  50SB1                JUNCTION      0.00    20.16     0  00:21           0       0.519       1.711
  51SB1                JUNCTION      5.76     5.76     0  00:12      0.0715      0.0713       0.525
  52SB1_OF             JUNCTION      0.00   835.67     0  00:44           0        28.7       0.255
  53SB1_OF             JUNCTION      0.00   967.78     0  00:36           0        26.5       0.138
  5SB1                 JUNCTION     30.55   115.52     0  00:30       0.696        10.1       0.063
  5SB11                JUNCTION     28.33   277.35     0  00:27       0.567        6.98      -0.262
  5SB14                JUNCTION      4.48    20.48     0  00:21       0.131       0.488      -0.225
  5SB17                JUNCTION     18.47    18.47     0  00:15       0.407       0.407      -1.153
  5SB21_OF             JUNCTION      0.00   958.15     0  00:59           0        52.1       8.050
  5SB23                JUNCTION      0.00    58.81     0  00:21           0        1.26       0.375
  5SB3                 JUNCTION      7.58     7.58     0  00:12       0.126       0.126      -1.652
  5SB6                 JUNCTION     13.02   267.70     0  00:30       0.244         6.5      -1.073
  5SB7_OF              JUNCTION     17.39   953.12     0  00:59       0.263        54.1       4.561
  5SB9_OF              JUNCTION      0.00   815.80     0  01:04           0        44.7       0.243
  6SB1                 JUNCTION      9.41     9.41     0  00:21       0.273       0.272       0.021
  6SB11                JUNCTION     21.44    95.94     0  00:29       0.603         2.4       0.262
  6SB14                JUNCTION     10.78    16.64     0  00:15       0.181       0.357      -0.020
  6SB17                JUNCTION     12.73    69.00     0  00:15       0.251        1.41       0.959
  6SB3                 JUNCTION      9.09     9.09     0  00:12       0.163       0.162      -2.153
  745                  JUNCTION      0.00   913.65     0  00:44           0        50.1       1.216
  747                  JUNCTION      0.00   784.48     0  01:04           0        42.9       0.045
  751                  JUNCTION      0.00   115.17     0  01:04           0        3.33       0.014
  754                  JUNCTION      0.00    72.86     0  00:20           0        1.49       0.332
  756                  JUNCTION      0.00   183.19     0  00:27           0        4.27      -0.005
  757                  JUNCTION      0.00   151.18     0  00:21           0        2.96       0.738
  758                  JUNCTION      0.00   150.09     0  00:19           0        2.99       0.866
  7SB1                 JUNCTION     19.06   140.48     0  00:30       0.448        10.8       0.075
  7SB11                JUNCTION     16.05    81.65     0  00:25       0.284        1.81       0.447
  7SB14                JUNCTION      6.68     6.68     0  00:21       0.176       0.176       0.039
  7SB17                JUNCTION     16.37    16.37     0  00:15       0.353       0.352      -0.701
  7SB3                 JUNCTION      0.00    41.40     0  00:31           0        2.11       0.207
  7SB6                 JUNCTION      8.55    80.43     0  00:22       0.184        1.67      -0.245
  800                  JUNCTION      0.00  1080.65     0  01:05           0        57.3       0.051
  802                  JUNCTION      0.00  1249.76     0  01:07           0        65.7       0.258
  818                  JUNCTION      0.00   932.76     0  00:36           0        26.5       0.155
  822                  JUNCTION      0.00   874.53     0  00:45           0        48.9       0.259
  824                  JUNCTION      0.00   869.02     0  00:46           0        48.7       0.487
  8SB1                 JUNCTION     13.55    13.55     0  00:15       0.404       0.404      -1.301
  8SB11                JUNCTION     14.41    68.71     0  00:21       0.187        1.53       0.822
  8SB14                JUNCTION      7.96     7.96     0  00:12       0.124       0.124       5.130
  8SB17                JUNCTION     17.35    17.35     0  00:15       0.393       0.392      -0.801
  8SB3_OF              JUNCTION      9.63   874.86     0  00:37       0.178        28.7       0.197
  8SB6                 JUNCTION     11.27   258.14     0  00:29       0.302        6.25       0.001
  9SB1                 JUNCTION     15.86   164.60     0  00:30       0.462        11.7       0.403
  9SB11                JUNCTION     10.70    50.16     0  00:15       0.244       0.948       0.326
  9SB14                JUNCTION     15.72    94.88     0  00:21         0.3        2.21       0.146
  9SB17                JUNCTION     11.41    11.41     0  00:12       0.235       0.234       1.240
  O.15_UP              JUNCTION      0.00  1249.21     0  01:08           0        65.5       0.319
  SB1018_OF            JUNCTION     73.25   822.85     0  01:05       0.952        45.6       0.129
  SB1216_OF            JUNCTION     42.67  1177.99     0  01:06       0.708          62       0.282
  O.O_RM               OUTFALL       0.00  1308.79     0  01:10           0        64.4       0.000
  1SB1                 STORAGE     633.99   633.99     0  00:15        9.42        9.41       0.045
  99                   STORAGE       0.00   461.05     0  00:20           0        4.87       0.250
  
  
  **********************
  Node Surcharge Summary
  **********************
  
  No nodes were surcharged.
  
  
  *********************
  Node Flooding Summary
  *********************
  
  No nodes were flooded.
  
  
  **********************
  Storage Volume Summary
  **********************
  
  --------------------------------------------------------------------------------------------------
                         Average     Avg  Evap Exfil       Maximum     Max    Time of Max    Maximum
                          Volume    Pcnt  Pcnt  Pcnt        Volume    Pcnt     Occurrence    Outflow
  Storage Unit          1000 ft3    Full  Loss  Loss      1000 ft3    Full    days hr:min        CFS
  --------------------------------------------------------------------------------------------------
  1SB1                   445.145       3     0     0       952.450       6       0  01:13      63.97
  99                     490.676      54     0     0       631.237      70       0  00:40      10.98
  
  
  ***********************
  Outfall Loading Summary
  ***********************
  
  -----------------------------------------------------------
                         Flow       Avg       Max       Total
                         Freq      Flow      Flow      Volume
  Outfall Node           Pcnt       CFS       CFS    10^6 gal
  -----------------------------------------------------------
  O.O_RM                95.08    291.43   1308.79      64.399
  -----------------------------------------------------------
  System                95.08    291.43   1308.79      64.399
  
  
  ********************
  Link Flow Summary
  ********************
  
  -----------------------------------------------------------------------------
                                 Maximum  Time of Max   Maximum    Max/    Max/
                                  |Flow|   Occurrence   |Veloc|    Full    Full
  Link                 Type          CFS  days hr:min    ft/sec    Flow   Depth
  -----------------------------------------------------------------------------
  .13_NAT              CHANNEL   1247.04     0  01:09      5.23    0.01    0.31
  .21NAT               CHANNEL   1249.21     0  01:08      4.16    0.14    0.56
  0.06_NAT             CHANNEL   1308.79     0  01:10      0.72    0.03    0.35
  1051                 CHANNEL    435.95     0  00:37      1.96    0.01    0.29
  1087                 CHANNEL    114.70     0  01:04      6.19    0.00    0.21
  36INCH_1             CONDUIT     40.30     0  00:22      6.13    1.00    0.93
  36INCH_2             CONDUIT     42.90     0  00:27      6.51    1.17    0.90
  47OVRFLW             CHANNEL    780.60     0  01:04      3.01    0.03    0.09
  47PIPE               CONDUIT      4.61     0  00:44      6.60    3.47    1.00
  51OVRFLW             CHANNEL      0.00     0  00:00      0.00    0.00    0.00
  51_7X10_1            CONDUIT    456.82     0  00:44     11.09    1.21    1.00
  51_7X10_2            CONDUIT    456.82     0  00:44     11.09    1.21    1.00
  536                  CHANNEL     22.34     0  00:17      4.28    0.00    0.12
  537                  CHANNEL     48.95     0  00:30      2.48    0.00    0.14
  53_#7TRP             CONDUIT    818.39     0  00:45      3.10    0.32    0.35
  543                  CHANNEL     17.23     0  00:15      9.09    0.00    0.12
  544                  CHANNEL     11.12     0  00:14      3.04    0.00    0.07
  548                  CHANNEL     18.33     0  00:14      4.94    0.00    0.12
  549                  CHANNEL      7.73     0  00:16      2.82    0.00    0.07
  54INCH_1             CONDUIT     77.23     0  00:30      6.80    0.65    0.67
  54INCH_2             CONDUIT     95.16     0  00:30      8.90    0.88    0.64
  551                  CHANNEL     22.12     0  00:15      2.54    0.00    0.10
  552                  CHANNEL     36.27     0  00:19      3.79    0.00    0.10
  557                  CHANNEL     10.65     0  00:13      1.93    0.00    0.10
  558                  CHANNEL     37.31     0  00:22      2.46    0.00    0.13
  559                  CHANNEL     48.66     0  00:23      4.92    0.00    0.10
  55_5X12_1            CONDUIT    466.38     0  00:36      7.77    0.93    1.00
  55_5X12_2            CONDUIT    466.38     0  00:36      7.77    0.93    1.00
  55_OVRFLW            CHANNEL      0.00     0  00:00      0.00    0.00    0.02
  560                  CHANNEL     60.67     0  00:22      5.27    0.00    0.11
  561                  CHANNEL     92.63     0  00:24      6.42    0.00    0.12
  563                  CHANNEL      6.83     0  00:18      3.63    0.00    0.05
  564                  CHANNEL      6.63     0  00:21      2.82    0.00    0.05
  565                  CHANNEL     16.54     0  00:15      3.43    0.00    0.07
  566                  CHANNEL     21.00     0  00:16      2.36    0.00    0.10
  571                  CHANNEL     19.14     0  00:14      7.53    0.00    0.09
  572                  CHANNEL     39.64     0  00:15      3.08    0.00    0.13
  573                  CHANNEL     41.18     0  00:22      2.63    0.00    0.13
  582                  CHANNEL     17.54     0  00:21      5.68    0.00    0.07
  583                  CHANNEL     11.98     0  00:18      3.32    0.00    0.06
  591                  CHANNEL      8.29     0  00:12      1.99    0.00    0.07
  592                  CHANNEL     27.80     0  00:15      3.73    0.00    0.09
  593                  CHANNEL     53.23     0  00:15      6.90    0.00    0.09
  594                  CHANNEL     47.93     0  00:16      3.49    0.00    0.13
  595                  CHANNEL     28.17     0  00:15      2.87    0.00    0.10
  596                  CHANNEL     12.45     0  00:15      5.59    0.00    0.06
  597                  CHANNEL     30.02     0  00:15      5.44    0.01    0.18
  598                  CHANNEL     33.27     0  00:20      4.26    0.01    0.18
  601                  CHANNEL     28.63     0  00:12      4.15    0.01    0.21
  602                  CHANNEL     72.86     0  00:20      5.81    0.00    0.12
  604                  CHANNEL    269.96     0  00:30     10.24    0.06    0.48
  606                  CHANNEL     11.49     0  00:17      2.36    0.00    0.08
  607                  CHANNEL     20.88     0  00:19      3.44    0.00    0.15
  608                  CHANNEL     23.81     0  00:15     35.54    0.00    0.10
  609                  CHANNEL     33.53     0  00:21      2.85    0.00    0.11
  610                  CONDUIT     51.05     0  00:17      5.34    0.05    0.57
  612                  CHANNEL     12.67     0  00:15      2.89    0.00    0.08
  613                  CHANNEL     23.65     0  00:13      3.04    0.00    0.17
  615                  CHANNEL      5.44     0  00:14      1.53    0.00    0.07
  616                  CHANNEL     15.92     0  00:21      3.06    0.00    0.07
  618                  CHANNEL      3.31     0  00:30      2.51    0.00    0.04
  619                  CHANNEL     10.85     0  00:21      4.55    0.00    0.09
  620                  CHANNEL     10.88     0  00:15      4.58    0.00    0.28
  622                  CHANNEL    117.51     0  01:14      3.50    0.00    0.44
  623                  CHANNEL     85.01     0  01:10      2.43    0.00    0.51
  624                  CHANNEL     10.44     0  00:16      4.13    0.00    0.20
  626                  CHANNEL      8.09     0  02:07      3.10    0.00    0.32
  627                  CHANNEL     19.84     0  00:16      4.90    0.00    0.09
  628                  CHANNEL     58.56     0  00:22      6.03    0.00    0.15
  629                  CHANNEL     20.08     0  00:15      2.49    0.00    0.11
  630                  CHANNEL     39.25     0  00:21      2.74    0.00    0.12
  631                  CHANNEL     11.79     0  00:18      1.84    0.00    0.10
  632                  CHANNEL     15.84     0  00:15      4.14    0.00    0.08
  633                  CHANNEL     23.11     0  00:18      3.84    0.00    0.17
  634                  CHANNEL      8.58     0  00:16      3.63    0.00    0.08
  635                  CHANNEL      8.14     0  00:12      3.12    0.00    0.07
  636                  CHANNEL     12.66     0  00:15      2.41    0.00    0.07
  637                  CHANNEL      8.92     0  00:12      2.81    0.00    0.14
  641                  CHANNEL      8.73     0  00:14      2.17    0.00    0.08
  642                  CHANNEL     26.25     0  00:15      2.42    0.00    0.18
  643                  CHANNEL      8.71     0  00:15      2.09    0.00    0.08
  644                  CONDUIT     63.97     0  01:13      9.45    1.09    0.93
  647                  CHANNEL    183.87     0  00:28      2.73    0.01    0.21
  650                  CHANNEL    317.86     0  00:32      2.08    0.04    0.26
  655                  CONDUIT      5.65     0  00:30      2.40    0.11    0.31
  656                  CONDUIT     17.69     0  00:21      4.44    0.38    0.43
  657                  CONDUIT     33.27     0  00:21      6.85    0.40    0.58
  658                  CHANNEL     14.21     0  00:19      2.35    0.00    0.09
  659                  CHANNEL     77.24     0  00:24      2.54    0.00    0.16
  660                  CHANNEL    216.34     0  00:24      3.87    0.01    0.21
  662                  CHANNEL     13.74     0  00:15      3.54    0.00    0.08
  663                  CHANNEL     36.31     0  00:18      3.67    0.00    0.10
  664                  CHANNEL     51.44     0  00:22      4.51    0.00    0.11
  665                  CHANNEL     15.48     0  00:21      3.16    0.00    0.07
  666                  CHANNEL     34.80     0  00:21      4.59    0.00    0.13
  667                  CHANNEL     13.96     0  00:12     23.42    0.00    0.06
  668                  CHANNEL     25.36     0  00:12      4.39    0.00    0.08
  669                  CHANNEL     39.02     0  00:12      7.12    0.00    0.10
  670                  CHANNEL     58.17     0  00:15      5.92    0.00    0.11
  671                  CHANNEL     78.21     0  00:17      4.47    0.00    0.15
  672                  CHANNEL    112.60     0  00:20      4.37    0.00    0.16
  673                  CHANNEL    132.56     0  00:21      4.68    0.00    0.18
  674                  CHANNEL     23.17     0  00:21      4.38    0.00    0.10
  675                  CHANNEL     13.86     0  00:14      2.41    0.00    0.11
  676                  CONDUIT      8.73     0  00:30      3.13    0.00    0.09
  677                  CHANNEL     14.07     0  00:13      1.82    0.00    0.15
  678                  CHANNEL     17.33     0  00:25      3.30    0.00    0.15
  679                  CHANNEL     21.72     0  00:22      3.73    0.00    0.14
  680                  CHANNEL     20.09     0  00:16      3.57    0.00    0.08
  681                  CHANNEL     26.83     0  00:21      3.33    0.00    0.13
  682                  CHANNEL     28.37     0  00:19      2.36    0.00    0.24
  684                  CHANNEL    141.58     0  00:39      1.19    0.06    0.74
  685                  CHANNEL     17.23     0  00:15      3.11    0.00    0.21
  686                  CHANNEL    103.49     0  00:37      3.30    0.01    0.17
  687                  CHANNEL     18.43     0  00:21      4.60    0.00    0.06
  688                  CHANNEL      0.00     0  00:00      0.00    0.00    0.00
  690                  CHANNEL      0.00     0  00:00      0.00    0.00    0.03
  691CHAN              CHANNEL     10.80     0  00:49      1.55    0.00    0.09
  691PIPE              CONDUIT    100.64     0  02:58      5.74    0.87    1.00
  694                  CHANNEL     13.28     0  00:15      5.00    0.00    0.23
  695                  CHANNEL     10.86     0  00:21      2.05    0.00    0.08
  696                  CHANNEL     20.05     0  00:22      2.92    0.00    0.09
  700CHAN              CHANNEL      0.00     0  00:00      0.00    0.00    0.00
  700PIPE              CONDUIT    123.52     0  00:27      9.83    2.92    1.00
  701CHAN              CHANNEL     37.58     0  00:24      3.45    0.00    0.06
  701PIPE              CONDUIT     16.48     0  00:58      6.97    1.20    1.00
  702                  CHANNEL    829.61     0  00:37      4.47    0.11    0.42
  702CHAN              CHANNEL      0.00     0  00:00      0.00    0.00    0.00
  702PIPE              CONDUIT     79.16     0  00:49      8.23    1.54    1.00
  703                  CHANNEL    834.24     0  00:44      4.56    0.09    0.42
  704                  CHANNEL    812.15     0  00:45      5.25    0.10    0.38
  704CHAN              CHANNEL      0.00     0  00:00      0.00    0.00    0.00
  704PIPE              CONDUIT     72.33     0  00:49      7.52    1.41    1.00
  705                  CHANNEL    869.02     0  00:46      5.09    0.08    0.32
  705CHAN              CHANNEL      0.00     0  00:00      0.00    0.00    0.00
  705PIPE              CONDUIT     12.00     0  00:14      6.89    1.67    1.00
  706CHAN              CHANNEL     13.51     0  00:49      1.44    0.00    0.05
  706PIPE              CONDUIT     58.19     0  01:11      6.08    1.34    1.00
  707CHAN              CHANNEL      3.38     0  00:31      1.78    0.00    0.04
  707PIPE              CONDUIT      6.72     0  00:13      5.52    1.18    1.00
  707_MODIFY           CHANNEL    981.01     0  00:54    >50.00    0.01    0.36
  708CHAN              CHANNEL     37.07     0  00:42      1.63    0.00    0.08
  708PIPE              CONDUIT     48.74     0  00:16      6.89    1.38    1.00
  708_MODIFY           CHANNEL    941.00     0  00:59      3.26    0.01    0.38
  709_MODIFY           CHANNEL    958.15     0  00:59      9.29    0.01    0.42
  710_MODIFY           CHANNEL    903.51     0  01:02      1.89    0.01    0.46
  712                  CHANNEL    792.61     0  01:05      7.46    0.02    0.24
  713                  CHANNEL    815.68     0  01:05      6.33    0.02    0.21
  714                  CHANNEL    819.72     0  01:06      4.04    0.02    0.26
  717                  CHANNEL   1176.47     0  01:07      4.36    0.22    0.49
  740CHAN              CHANNEL     59.71     0  00:27      3.39    0.00    0.07
  740PIPE              CONDUIT     54.83     0  00:13      7.79    1.27    1.00
  746_MODIFY           CHANNEL    874.95     0  00:38      2.99    0.01    0.33
  748                  CHANNEL    784.37     0  01:04      5.35    0.03    0.28
  750                  CHANNEL     63.14     0  01:15      2.32    0.00    0.43
  750C                 CONDUIT      1.58     0  00:30      1.44    0.00    0.06
  750P                 CONDUIT      6.87     0  00:24      5.67    1.55    1.00
  753                  CHANNEL    111.08     0  01:04      2.09    0.00    0.20
  762                  CHANNEL     10.47     0  00:15      2.84    0.00    0.07
  768CHAN              CHANNEL    217.51     0  00:38      5.08    0.01    0.11
  768PIPE              CONDUIT    193.75     0  00:50     12.31    1.35    1.00
  769CHAN              CHANNEL    231.60     0  00:36      4.66    0.01    0.12
  769PIPE              CONDUIT    149.04     0  01:27      9.37    1.31    1.00
  770CHAN              CHANNEL    189.31     0  00:33      3.54    0.01    0.13
  770PIPE              CONDUIT    103.68     0  01:35      8.25    1.23    1.00
  771CHAN              CHANNEL    168.96     0  00:27      3.94    0.01    0.12
  771PIPE              CONDUIT     98.44     0  00:10      9.17    1.15    1.00
  772CHAN              CHANNEL    164.71     0  00:25      4.12    0.01    0.11
  772PIPE              CONDUIT     81.02     0  00:12      8.42    1.31    1.00
  773CHAN              CHANNEL    160.72     0  00:23      3.14    0.01    0.12
  773PIPE              CONDUIT     91.06     0  00:08      9.51    1.77    1.00
  774CHAN              CHANNEL    144.87     0  00:16      3.88    0.01    0.12
  774PIPE              CONDUIT     83.68     0  00:08      8.70    1.71    1.00
  775CHAN              CHANNEL    104.50     0  00:13      3.20    0.01    0.10
  775PIPE              CONDUIT     76.74     0  00:07      7.98    1.58    1.00
  780CHAN              CHANNEL     38.26     0  00:30      1.66    0.00    0.09
  780PIPE              CONDUIT     57.25     0  00:25      8.10    1.24    1.00
  781CHAN              CHANNEL     49.24     0  00:29      2.10    0.00    0.08
  781PIPE              CONDUIT     47.40     0  00:14      7.61    0.78    1.00
  782CHAN              CHANNEL     60.77     0  00:25      1.79    0.01    0.10
  782PIPE              CONDUIT     24.50     0  00:14      6.31    1.59    1.00
  789OF                CONDUIT      2.83     0  00:29      2.43    0.00    0.06
  789PIPE              CONDUIT    255.22     0  00:30     20.31    1.27    1.00
  801                  CHANNEL   1080.58     0  01:06      7.28    0.08    0.34
  803CHAN              CHANNEL     28.96     0  00:27      3.27    0.00    0.10
  803PIPE              CONDUIT     71.06     0  00:17     10.09    2.07    1.00
  804CHAN              CHANNEL     57.35     0  00:23      3.39    0.00    0.15
  804PIPE              CONDUIT     33.75     0  00:12      6.88    1.81    1.00
  805OF                CONDUIT      1.72     0  00:59      0.16    0.00    0.29
  805PIPE1             CONDUIT     76.87     0  00:33     12.05    0.95    1.00
  805PIPE2             CONDUIT    204.87     0  00:32     14.02    1.05    1.00
  810CHAN              CHANNEL     75.22     0  00:30      3.16    0.00    0.08
  810PIPE1             CONDUIT     93.95     0  00:47      7.48    1.55    1.00
  810PIPE2             CONDUIT     40.74     0  00:47      5.76    1.55    1.00
  811CHAN              CHANNEL    108.23     0  00:28      3.06    0.01    0.10
  811PIPE              CONDUIT     77.23     0  01:00      8.14    1.82    1.00
  812CHAN              CHANNEL    118.99     0  00:24      3.05    0.01    0.11
  812PIPE              CONDUIT     46.99     0  01:15      6.65    1.67    1.00
  813CHAN              CHANNEL    132.62     0  00:21      3.19    0.01    0.11
  813PIPE              CONDUIT     37.74     0  00:12      7.69    2.18    1.00
  814CHAN              CHANNEL    140.46     0  00:19      3.06    0.01    0.11
  814PIPE              CONDUIT     21.73     0  00:09      6.92    2.28    1.00
  815CHAN              CHANNEL     96.11     0  00:18      2.68    0.00    0.10
  815PIPE1             CONDUIT     11.70     0  00:12      3.72    0.95    1.00
  815PIPE2             CONDUIT     12.52     0  00:12      3.99    0.95    1.00
  816CHAN              CHANNEL     72.17     0  00:17      3.73    0.00    0.07
  816PIPE              CONDUIT     22.43     0  00:11      7.14    1.06    1.00
  817CHAN              CHANNEL     50.39     0  00:16      3.73    0.00    0.06
  817PIPE              CONDUIT     35.13     0  00:08      7.56    1.08    1.00
  825                  CHANNEL    871.59     0  00:45      7.35    0.03    0.32
  825OF                CONDUIT      2.82     0  01:03      0.68    0.00    0.13
  825PIPE              CONDUIT      5.56     0  00:17      7.60    0.48    1.00
  826                  CHANNEL    103.17     0  00:36      3.66    0.00    0.17
  826OF                CONDUIT     35.49     0  01:03      3.28    0.02    0.28
  826PIPE              CONDUIT     19.05     0  00:20      8.82    1.10    1.00
  827OF                CONDUIT      0.00     0  00:00      0.00    0.00    0.20
  827PIPE              CONDUIT     19.10     0  00:21     11.47    0.54    0.70
  830OF                CONDUIT      7.26     0  00:15      7.54    0.00    0.04
  830PIPE              CONDUIT     10.96     0  00:16     10.69    1.04    0.95
  831OF                CONDUIT      0.00     0  00:00      0.00    0.00    0.50
  831PIPE              CONDUIT     13.10     0  00:14     11.82    1.04    1.00
  838CHAN              CHANNEL     18.50     0  00:36      4.03    0.00    0.07
  838OF                CHANNEL     24.06     0  00:40      4.10    0.00    0.10
  838PIP               CONDUIT     25.58     0  00:19      8.19    1.47    1.00
  838PIPE              CONDUIT     20.85     0  02:39      6.64    1.20    1.00
  839CHAN              CHANNEL     11.24     0  00:37      0.67    0.00    0.15
  839PIPE              CONDUIT     16.39     0  00:06      5.91    0.94    1.00
  848CHAN              CONDUIT     19.11     0  00:36      3.96    0.02    0.15
  848PIPE              CONDUIT     77.56     0  01:17      8.15    1.62    1.00
  849_1                CONDUIT    147.15     0  00:31      8.44    1.58    0.83
  849_2                CONDUIT    147.15     0  00:31      8.44    1.58    0.83
  849_TRAP             CONDUIT      0.73     0  00:31      1.06    0.00    0.03
  853OF                CHANNEL     11.19     0  00:21      0.77    0.01    0.16
  853PIPE              CONDUIT     11.59     0  00:09      2.48    1.17    1.00
  854OF                CHANNEL     22.25     0  00:27      1.75    0.01    0.17
  861_1                CONDUIT    105.53     0  00:27      8.40    2.77    1.00
  861_2                CONDUIT    105.53     0  00:27      8.40    2.77    1.00
  861_TRAP             CONDUIT      9.98     0  00:30      3.25    0.01    0.10
  883CULV              CONDUIT     19.90     0  00:26      6.38    1.20    1.00
  883OF                CHANNEL      2.49     0  00:59      1.44    0.00    0.12
  889CHAN              CHANNEL      0.00     0  00:00      0.00    0.00    0.14
  889PIPE              CONDUIT      5.73     0  00:12      6.92    0.74    1.00
  892CHAN              CHANNEL      0.00     0  00:00      0.00    0.00    0.00
  892PIPE              CONDUIT     99.70     0  03:06      8.03    1.56    1.00
  893CHAN              CHANNEL      0.00     0  00:00      0.00    0.00    0.03
  893PIPE              CONDUIT    100.38     0  02:39      6.19    0.87    1.00
  BRADBOX              CONDUIT   1061.61     0  00:20     17.67    0.28    0.52
  BRADBOXOV            CONDUIT      0.00     0  00:00      0.00    0.00    0.00
  BRADLEYIN            CONDUIT    461.05     0  00:20     18.07    0.51    0.73
  BRAD_OUT             CONDUIT     10.98     0  01:58     13.99    1.32    1.00
  DEANOVER             CHANNEL      0.00     0  00:00      0.00    0.00    0.00
  DEANPIPE1            CONDUIT    410.29     0  01:07      8.16    0.99    1.00
[...]
  685                     1.00   0.00  0.00  0.00  1.00  0.00  0.00  0.00  0.75  0.00
  686                     1.00   0.00  0.00  0.00  0.52  0.00  0.00  0.48  0.27  0.00
  687                     1.00   0.00  0.00  0.00  0.56  0.01  0.00  0.43  0.57  0.00
  688                     1.00   1.00  0.00  0.00  0.00  0.00  0.00  0.00  0.00  0.00
  690                     1.00   0.88  0.12  0.00  0.00  0.00  0.00  0.00  0.00  0.00
  691CHAN                 1.00   0.85  0.03  0.00  0.12  0.00  0.00  0.00  0.87  0.00
  691PIPE                 1.00   0.00  0.00  0.00  0.99  0.00  0.00  0.00  0.00  0.00
  694                     1.00   0.00  0.00  0.00  0.99  0.01  0.00  0.00  0.98  0.00
  695                     1.00   0.00  0.00  0.00  1.00  0.00  0.00  0.00  0.71  0.00
  696                     1.00   0.00  0.00  0.00  0.00  0.00  0.00  1.00  0.00  0.00
  700CHAN                 1.00   1.00  0.00  0.00  0.00  0.00  0.00  0.00  0.00  0.00
  700PIPE                 1.00   0.00  0.00  0.00  1.00  0.00  0.00  0.00  0.00  0.00
  701CHAN                 1.00   0.85  0.00  0.00  0.00  0.00  0.00  0.15  0.00  0.00
  701PIPE                 1.00   0.00  0.00  0.00  0.04  0.00  0.00  0.96  0.00  0.00
  702                     1.00   0.00  0.00  0.00  1.00  0.00  0.00  0.00  0.00  0.00
  702CHAN                 1.00   1.00  0.00  0.00  0.00  0.00  0.00  0.00  0.00  0.00
  702PIPE                 1.00   0.00  0.00  0.00  0.99  0.00  0.00  0.01  0.67  0.00
  703                     1.00   0.00  0.00  0.00  1.00  0.00  0.00  0.00  0.00  0.00
  704                     1.00   0.00  0.00  0.00  1.00  0.00  0.00  0.00  0.00  0.00
  704CHAN                 1.00   1.00  0.00  0.00  0.00  0.00  0.00  0.00  0.00  0.00
  704PIPE                 1.00   0.00  0.00  0.00  1.00  0.00  0.00  0.00  0.03  0.00
  705                     1.00   0.00  0.00  0.00  1.00  0.00  0.00  0.00  0.00  0.00
  705CHAN                 1.00   1.00  0.00  0.00  0.00  0.00  0.00  0.00  0.00  0.00
  705PIPE                 1.00   0.00  0.00  0.00  0.15  0.00  0.00  0.85  0.00  0.00
  706CHAN                 1.00   0.90  0.00  0.00  0.00  0.00  0.00  0.10  0.00  0.00
  706PIPE                 1.00   0.00  0.00  0.00  0.16  0.00  0.00  0.84  0.00  0.00
  707CHAN                 1.00   0.88  0.00  0.00  0.09  0.00  0.00  0.03  0.94  0.00
  707PIPE                 1.00   0.23  0.00  0.00  0.15  0.00  0.00  0.62  0.01  0.00
  707_MODIFY              1.00   0.00  0.00  0.00  0.99  0.01  0.00  0.00  0.00  0.00
  708CHAN                 1.00   0.86  0.00  0.00  0.06  0.00  0.00  0.08  0.00  0.00
  708PIPE                 1.00   0.00  0.00  0.00  0.16  0.00  0.00  0.84  0.00  0.00
  708_MODIFY              1.00   0.00  0.00  0.00  1.00  0.00  0.00  0.00  0.00  0.00
  709_MODIFY              1.00   0.00  0.00  0.00  1.00  0.00  0.00  0.00  0.00  0.00
  710_MODIFY              1.00   0.00  0.00  0.00  1.00  0.00  0.00  0.00  0.02  0.00
  712                     1.00   0.00  0.00  0.00  1.00  0.00  0.00  0.00  0.00  0.00
  713                     1.00   0.00  0.00  0.00  1.00  0.00  0.00  0.00  0.02  0.00
  714                     1.00   0.00  0.00  0.00  1.00  0.00  0.00  0.00  0.02  0.00
  717                     1.00   0.00  0.00  0.00  1.00  0.00  0.00  0.00  0.00  0.00
  740CHAN                 1.00   0.86  0.00  0.00  0.00  0.00  0.00  0.14  0.00  0.00
  740PIPE                 1.00   0.00  0.00  0.00  0.99  0.01  0.00  0.00  0.84  0.00
  746_MODIFY              1.00   0.00  0.00  0.00  1.00  0.00  0.00  0.00  0.00  0.00
  748                     1.00   0.00  0.00  0.00  1.00  0.00  0.00  0.00  0.02  0.00
  750                     1.00   0.00  0.00  0.00  1.00  0.00  0.00  0.00  0.02  0.00
  750C                    1.00   0.90  0.00  0.00  0.00  0.00  0.00  0.10  0.00  0.00
  750P                    1.00   0.00  0.00  0.00  0.12  0.00  0.00  0.88  0.00  0.00
  753                     1.00   0.00  0.00  0.00  0.93  0.00  0.00  0.07  0.00  0.00
  762                     1.00   0.00  0.00  0.00  0.00  0.00  0.00  1.00  0.00  0.00
  768CHAN                 1.00   0.86  0.00  0.00  0.00  0.00  0.00  0.14  0.00  0.00
  768PIPE                 1.00   0.00  0.00  0.00  0.95  0.00  0.00  0.05  0.81  0.00
  769CHAN                 1.00   0.85  0.00  0.00  0.00  0.00  0.00  0.15  0.00  0.00
  769PIPE                 1.00   0.00  0.00  0.00  0.91  0.09  0.00  0.00  0.00  0.00
  770CHAN                 1.00   0.83  0.00  0.00  0.11  0.00  0.00  0.05  0.00  0.00
  770PIPE                 1.00   0.00  0.00  0.00  0.19  0.00  0.00  0.81  0.00  0.00
  771CHAN                 1.00   0.83  0.02  0.00  0.13  0.00  0.00  0.02  0.94  0.00
  771PIPE                 1.00   0.00  0.00  0.00  0.99  0.01  0.00  0.00  0.41  0.00
  772CHAN                 1.00   0.84  0.00  0.00  0.12  0.00  0.00  0.03  0.01  0.00
  772PIPE                 1.00   0.00  0.00  0.00  0.19  0.00  0.00  0.81  0.00  0.00
  773CHAN                 1.00   0.84  0.00  0.00  0.13  0.00  0.00  0.03  0.85  0.00
  773PIPE                 1.00   0.00  0.00  0.00  0.99  0.00  0.00  0.00  0.08  0.00
  774CHAN                 1.00   0.84  0.02  0.00  0.13  0.00  0.00  0.01  0.96  0.00
  774PIPE                 1.00   0.00  0.02  0.00  0.98  0.00  0.00  0.00  0.03  0.00
  775CHAN                 1.00   0.86  0.01  0.00  0.12  0.00  0.00  0.01  0.88  0.00
  775PIPE                 1.00   0.02  0.01  0.00  0.97  0.00  0.00  0.00  0.08  0.00
  780CHAN                 1.00   0.85  0.06  0.00  0.08  0.00  0.00  0.00  0.96  0.00
  780PIPE                 1.00   0.00  0.00  0.00  0.17  0.00  0.00  0.83  0.01  0.00
  781CHAN                 1.00   0.89  0.00  0.00  0.00  0.00  0.00  0.11  0.00  0.00
  781PIPE                 1.00   0.00  0.00  0.00  0.98  0.02  0.00  0.00  0.87  0.00
  782CHAN                 1.00   0.85  0.00  0.00  0.09  0.00  0.00  0.06  0.00  0.00
  782PIPE                 1.00   0.00  0.00  0.00  0.14  0.00  0.00  0.86  0.00  0.00
  789OF                   1.00   0.98  0.00  0.00  0.00  0.00  0.00  0.02  0.00  0.00
  789PIPE                 1.00   0.00  0.00  0.00  0.92  0.08  0.00  0.00  0.94  0.00
  801                     1.00   0.00  0.00  0.00  1.00  0.00  0.00  0.00  0.00  0.00
  803CHAN                 1.00   0.94  0.00  0.00  0.00  0.00  0.00  0.06  0.00  0.00
  803PIPE                 1.00   0.00  0.00  0.00  1.00  0.00  0.00  0.00  0.04  0.00
  804CHAN                 1.00   0.91  0.00  0.00  0.04  0.00  0.00  0.05  0.00  0.00
  804PIPE                 1.00   0.00  0.00  0.00  1.00  0.00  0.00  0.00  0.01  0.00
  805OF                   1.00   0.07  0.89  0.00  0.04  0.00  0.00  0.00  0.90  0.00
  805PIPE1                1.00   0.00  0.01  0.00  0.95  0.04  0.00  0.00  0.05  0.00
  805PIPE2                1.00   0.00  0.00  0.00  0.94  0.00  0.00  0.06  0.00  0.00
  810CHAN                 1.00   0.95  0.00  0.00  0.00  0.00  0.00  0.05  0.00  0.00
  810PIPE1                1.00   0.00  0.00  0.00  1.00  0.00  0.00  0.00  0.01  0.00
  810PIPE2                1.00   0.00  0.00  0.00  1.00  0.00  0.00  0.00  0.01  0.00
  811CHAN                 1.00   0.90  0.00  0.00  0.00  0.00  0.00  0.10  0.00  0.00
  811PIPE                 1.00   0.00  0.00  0.00  1.00  0.00  0.00  0.00  0.00  0.00
  812CHAN                 1.00   0.86  0.00  0.00  0.07  0.00  0.00  0.07  0.00  0.00
  812PIPE                 1.00   0.00  0.00  0.00  1.00  0.00  0.00  0.00  0.23  0.00
  813CHAN                 1.00   0.85  0.00  0.00  0.11  0.00  0.00  0.04  0.00  0.00
  813PIPE                 1.00   0.00  0.00  0.00  1.00  0.00  0.00  0.00  0.00  0.00
  814CHAN                 1.00   0.82  0.00  0.00  0.14  0.00  0.00  0.04  0.00  0.00
  814PIPE                 1.00   0.00  0.00  0.00  1.00  0.00  0.00  0.00  0.00  0.00
  815CHAN                 1.00   0.82  0.02  0.00  0.16  0.00  0.00  0.00  0.90  0.00
  815PIPE1                1.00   0.00  0.00  0.00  1.00  0.00  0.00  0.00  0.51  0.00
  815PIPE2                1.00   0.00  0.00  0.00  1.00  0.00  0.00  0.00  0.80  0.00
  816CHAN                 1.00   0.84  0.02  0.00  0.12  0.02  0.00  0.00  0.98  0.00
  816PIPE                 1.00   0.00  0.00  0.00  0.19  0.81  0.00  0.00  0.35  0.00
  817CHAN                 1.00   0.85  0.04  0.00  0.07  0.03  0.00  0.00  0.98  0.00
  817PIPE                 1.00   0.00  0.00  0.00  0.84  0.16  0.00  0.00  0.43  0.00
  825                     1.00   0.00  0.00  0.00  1.00  0.00  0.00  0.00  0.01  0.00
  825OF                   1.00   0.51  0.43  0.00  0.00  0.00  0.06  0.00  0.00  0.00
  825PIPE                 1.00   0.00  0.00  0.00  0.99  0.01  0.00  0.00  0.04  0.00
  826                     1.00   0.00  0.62  0.00  0.38  0.00  0.00  0.00  0.64  0.00
  826OF                   1.00   0.07  0.44  0.00  0.29  0.00  0.20  0.00  0.70  0.00
  826PIPE                 1.00   0.00  0.00  0.00  0.98  0.02  0.00  0.00  0.01  0.00
  827OF                   1.00   0.85  0.15  0.00  0.00  0.00  0.00  0.00  0.00  0.00
  827PIPE                 1.00   0.00  0.00  0.00  0.92  0.00  0.00  0.08  0.91  0.00
  830OF                   1.00   0.93  0.00  0.00  0.00  0.00  0.00  0.07  0.00  0.00
  830PIPE                 1.00   0.00  0.29  0.00  0.04  0.67  0.00  0.00  0.42  0.00
  831OF                   1.00   0.05  0.95  0.00  0.00  0.00  0.00  0.00  0.00  0.00
  831PIPE                 1.00   0.00  0.00  0.00  0.99  0.01  0.00  0.00  0.82  0.00
  838CHAN                 1.00   0.71  0.00  0.00  0.10  0.01  0.00  0.17  0.10  0.00
  838OF                   1.00   0.80  0.00  0.00  0.06  0.01  0.00  0.13  0.06  0.00
  838PIP                  1.00   0.00  0.00  0.00  0.93  0.00  0.00  0.07  0.67  0.00
  838PIPE                 1.00   0.00  0.00  0.00  1.00  0.00  0.00  0.00  0.04  0.00
  839CHAN                 1.00   0.68  0.01  0.00  0.31  0.00  0.00  0.00  0.99  0.00
  839PIPE                 1.00   0.00  0.56  0.00  0.44  0.00  0.00  0.00  0.69  0.00
  848CHAN                 1.00   0.86  0.00  0.00  0.00  0.00  0.00  0.14  0.00  0.00
  848PIPE                 1.00   0.00  0.00  0.00  1.00  0.00  0.00  0.00  0.00  0.00
  849_1                   1.00   0.00  0.00  0.00  1.00  0.00  0.00  0.00  0.01  0.00
  849_2                   1.00   0.00  0.00  0.00  1.00  0.00  0.00  0.00  0.01  0.00
  849_TRAP                1.00   0.97  0.00  0.00  0.00  0.00  0.00  0.03  0.00  0.00
  853OF                   1.00   0.00  0.38  0.00  0.61  0.00  0.00  0.00  0.00  0.00
  853PIPE                 1.00   0.00  0.00  0.00  1.00  0.00  0.00  0.00  0.00  0.00
  854OF                   1.00   0.00  0.00  0.00  0.11  0.00  0.00  0.89  0.00  0.00
  861_1                   1.00   0.00  0.00  0.00  1.00  0.00  0.00  0.00  0.00  0.00
  861_2                   1.00   0.00  0.00  0.00  1.00  0.00  0.00  0.00  0.00  0.00
  861_TRAP                1.00   0.96  0.00  0.00  0.00  0.00  0.00  0.04  0.00  0.00
  883CULV                 1.00   0.00  0.00  0.00  1.00  0.00  0.00  0.00  0.76  0.00
  883OF                   1.00   0.50  0.32  0.00  0.03  0.00  0.00  0.15  0.80  0.00
  889CHAN                 1.00   0.81  0.19  0.00  0.00  0.00  0.00  0.00  0.00  0.00
  889PIPE                 1.00   0.00  0.45  0.00  0.53  0.00  0.00  0.02  0.84  0.00
  892CHAN                 1.00   1.00  0.00  0.00  0.00  0.00  0.00  0.00  0.00  0.00
  892PIPE                 1.00   0.00  0.00  0.00  1.00  0.00  0.00  0.00  0.02  0.00
  893CHAN                 1.00   0.88  0.12  0.00  0.00  0.00  0.00  0.00  0.00  0.00
  893PIPE                 1.00   0.00  0.00  0.00  1.00  0.00  0.00  0.00  0.00  0.00
  BRADBOX                 1.00   0.00  0.00  0.00  0.91  0.09  0.00  0.00  0.93  0.00
  BRADBOXOV               1.00   1.00  0.00  0.00  0.00  0.00  0.00  0.00  0.00  0.00
  BRADLEYIN               1.00   0.00  0.00  0.00  0.16  0.05  0.79  0.00  0.04  0.00
  BRAD_OUT                1.00   0.00  0.00  0.00  0.22  0.78  0.00  0.00  0.02  0.00
  DEANOVER                1.00   1.00  0.00  0.00  0.00  0.00  0.00  0.00  0.00  0.00
  DEANPIPE1               1.00   0.00  0.00  0.00  1.00  0.00  0.00  0.00  0.01  0.00
  DEANPIPE2               1.00   0.00  0.00  0.00  1.00  0.00  0.00  0.00  0.01  0.00
  DEERWPIPE               1.00   0.00  0.00  0.00  1.00  0.00  0.00  0.00  0.00  0.00
  DEER_OVR                1.00   1.00  0.00  0.00  0.00  0.00  0.00  0.00  0.00  0.00
  GBPIPE                  1.00   0.00  0.00  0.00  1.00  0.00  0.00  0.00  0.00  0.00
  GB_OVER                 1.00   1.00  0.00  0.00  0.00  0.00  0.00  0.00  0.00  0.00
  LIB_1                   1.00   0.00  0.00  0.00  0.98  0.02  0.00  0.00  0.81  0.00
  LIB_10                  1.00   0.01  0.00  0.00  0.99  0.00  0.00  0.00  0.00  0.00
  LIB_12                  1.00   0.01  0.00  0.00  0.99  0.00  0.00  0.00  0.00  0.00
  LIB_2                   1.00   0.00  0.00  0.00  1.00  0.00  0.00  0.00  0.00  0.00
  LIB_3                   1.00   0.00  0.00  0.00  1.00  0.00  0.00  0.00  0.00  0.00
  LIB_4                   1.00   0.00  0.00  0.00  1.00  0.00  0.00  0.00  0.00  0.00
  LIB_5                   1.00   0.00  0.00  0.00  1.00  0.00  0.00  0.00  0.00  0.00
  LIB_6                   1.00   0.00  0.00  0.00  1.00  0.00  0.00  0.00  0.00  0.00
  LIB_7                   1.00   0.00  0.00  0.00  1.00  0.00  0.00  0.00  0.00  0.00
  LIB_8                   1.00   0.00  0.00  0.00  1.00  0.00  0.00  0.00  0.00  0.00
  LIB_9                   1.00   0.00  0.00  0.00  0.99  0.00  0.00  0.00  0.00  0.00
  PATH_OV                 1.00   0.02  0.00  0.00  0.98  0.00  0.00  0.00  0.00  0.00
  PATH_PIPE               1.00   0.00  0.00  0.00  0.99  0.00  0.00  0.00  0.00  0.00
  S_CONFIG2               1.00   0.00  0.00  0.00  1.00  0.00  0.00  0.00  0.01  0.00
  TEUTPIPE1               1.00   0.00  0.00  0.00  1.00  0.00  0.00  0.00  0.00  0.00
  TEUT_OVF                1.00   1.00  0.00  0.00  0.00  0.00  0.00  0.00  0.00  0.00
  
  
  *************************
  Conduit Surcharge Summary
  *************************
  
  ----------------------------------------------------------------------------
                                                           Hours        Hours 
                         --------- Hours Full --------   Above Full   Capacity
  Conduit                Both Ends  Upstream  Dnstream   Normal Flow   Limited
  ----------------------------------------------------------------------------
  36INCH_1                    0.01      0.01      0.52      0.06         0.01
  36INCH_2                    0.01      0.52      0.01      0.87         0.01
  47PIPE                      8.24      8.85      8.24      8.75         8.24
  51_7X10_1                   0.66      0.66      0.79      0.55         0.20
  51_7X10_2                   0.66      0.66      0.79      0.55         0.20
  55_5X12_1                   1.31      1.31      1.39      0.01         0.22
  55_5X12_2                   1.31      1.31      1.39      0.01         0.22
  644                         0.01      2.22      0.01      2.99         0.01
  691PIPE                     1.34      1.34      1.62      0.01         0.01
  700PIPE                     1.37      1.57      1.47      1.31         1.05
  701PIPE                     0.16      1.28      0.16      1.30         0.16
  702PIPE                     1.21      1.23      1.43      1.18         1.13
  704PIPE                     1.20      1.20      1.23      1.14         1.11
  705PIPE                     1.14      1.25      1.17      0.42         0.30
  706PIPE                     1.14      1.15      1.16      1.14         1.10
  707PIPE                     1.08      1.15      1.17      0.26         0.17
  708PIPE                     1.12      1.14      1.15      0.27         0.23
  740PIPE                     1.12      1.15      8.76      1.08         1.04
  750P                        0.85      1.10      0.85      1.12         0.85
  768PIPE                     0.79      1.45      0.88      1.49         0.78
  769PIPE                     1.45      1.49      1.45      1.53         1.45
  770PIPE                     1.48      1.50      1.49      0.25         0.20
  771PIPE                     1.46      1.48      1.50      0.35         0.31
  772PIPE                     1.43      1.45      1.48      1.19         1.16
  773PIPE                     1.41      1.45      1.45      0.77         0.73
  774PIPE                     1.42      1.43      1.45      1.15         1.13
  775PIPE                     1.40      1.40      1.43      0.18         0.16
  780PIPE                     1.20      1.22      1.32      0.97         0.93
  781PIPE                     0.97      0.97      1.22      0.01         0.01
  782PIPE                     1.00      1.25      1.00      0.38         0.12
  789PIPE                     0.52      0.52      0.99      0.37         0.37
  803PIPE                     0.57      0.70      0.57      0.78         0.57
  804PIPE                     0.78      0.94      0.78      0.61         0.36
  805PIPE1                    0.45      0.45      8.45      0.01         0.01
  805PIPE2                    0.45      0.45      8.34      0.15         0.01
  810PIPE1                    0.52      0.57      0.52      0.75         0.52
  810PIPE2                    0.57      0.82      0.57      1.00         0.56
  811PIPE                     0.65      1.05      0.65      1.16         0.65
  812PIPE                     1.13      1.20      1.13      0.82         0.68
  813PIPE                     1.27      1.38      1.27      1.51         1.24
  814PIPE                     1.52      1.65      1.52      1.67         1.50
  815PIPE1                    1.55      1.55      1.65      0.01         0.01
  815PIPE2                    1.55      1.55      1.65      0.01         0.01
  816PIPE                     1.30      1.30      1.55      1.13         1.13
  817PIPE                     1.02      1.02      1.28      0.87         0.86
  825PIPE                     8.08      8.08      8.70      0.01         0.01
  826PIPE                     8.63      8.73      8.63      0.08         0.02
  827PIPE                     0.01      0.01      1.78      0.01         0.01
  830PIPE                     0.01      0.70      0.01      0.47         0.01
  831PIPE                     1.49      1.56      8.74      0.22         0.19
  838PIP                      1.94      2.82      1.94      2.31         1.42
  838PIPE                     2.81      2.81      2.82      1.96         1.94
  839PIPE                     2.69      2.69      2.81      0.01         0.01
  848PIPE                     0.88      3.35      0.88      3.99         0.88
  849_1                       0.01      0.01      0.01      0.84         0.01
  849_2                       0.01      0.01      0.01      0.84         0.01
  853PIPE                     8.86      8.86      8.86      0.10         0.10
  861_1                       0.56      0.67      0.56      1.05         0.56
  861_2                       0.56      0.67      0.56      1.05         0.56
  883CULV                     1.69      1.91      5.72      1.47         1.22
  889PIPE                     0.67      0.67      8.73      0.01         0.01
  892PIPE                     1.18      6.51      1.43      7.68         0.74
  893PIPE                     0.36      0.36      1.34      0.01         0.01
  BRADLEYIN                   0.01      0.01      4.48      0.01         0.01
  BRAD_OUT                    1.87      8.81      1.99      2.01         1.47
  DEANPIPE1                   0.15      0.15      0.21      0.01         0.01
  DEANPIPE2                   0.15      0.15      0.21      0.01         0.01
  DEERWPIPE                   0.01      0.55      0.01      1.70         0.01
  GBPIPE                      0.01      0.01      0.01      0.34         0.01
  PATH_PIPE                   8.71      8.71      8.71      0.56         0.55
  

  Analysis begun on:  Wed Jan 02 08:39:41 2019
  Analysis ended on:  Wed Jan 02 08:39:54 2019
  Total elapsed time: 00:00:13