
  EPA STORM WATER MANAGEMENT MODEL - VERSION 5.1 (Build 5.1.012)
  --------------------------------------------------------------

  
  *************
  Element Count
  *************
  Number of rain gages ...... 0
  Number of subcatchments ... 0
  Number of nodes ........... 8
  Number of links ........... 7
  Number of pollutants ...... 0
  Number of land uses ....... 0
  
  
  ************
  Node Summary
  ************
                                           Invert      Max.    Ponded    External
  Name                 Type                 Elev.     Depth      Area    Inflow  
  -------------------------------------------------------------------------------
  FIT1                 JUNCTION              0.00      0.10       0.0
  FIT2                 JUNCTION              6.00      0.10       0.0
  JCT-10               JUNCTION              5.00      0.10       0.0
  JCT-12               JUNCTION             10.00      0.10       0.0
  JCT-14               JUNCTION             11.20      1.30       0.0
  MANHOLE              JUNCTION              6.20      2.00       0.0
  OFALL                OUTFALL               4.00      0.28       0.0
  WW                   STORAGE              -5.00      5.00       0.0    Yes
  
  
  ************
  Link Summary
  ************
  Name             From Node        To Node          Type            Length    %Slope Roughness
  ---------------------------------------------------------------------------------------------
  FM1              FIT1             FIT2             CONDUIT           70.7   -8.5153    0.0100
  FM2              FIT2             JCT-10           CONDUIT           99.4    1.0062    0.0100
  FM3              JCT-10           JCT-12           CONDUIT           80.5   -6.2252    0.0100
  GRAVITY          JCT-12           JCT-14           CONDUIT           17.8   -9.6083    0.0100
  GRAVITY2         JCT-14           MANHOLE          CONDUIT           44.2   11.3830    0.0100
  GRAVITY3         MANHOLE          OFALL            CONDUIT           26.4    8.3553    0.0100
  VSD              WW               FIT1             TYPE3 PUMP  
  
  
  *********************
  Cross Section Summary
  *********************
                                        Full     Full     Hyd.     Max.   No. of     Full
  Conduit          Shape               Depth     Area     Rad.    Width  Barrels     Flow
  ---------------------------------------------------------------------------------------
  FM1              FORCE_MAIN           0.10     0.01     0.03     0.10        1    22.89
  FM2              FORCE_MAIN           0.10     0.01     0.03     0.10        1     7.22
  FM3              FORCE_MAIN           0.10     0.01     0.03     0.10        1    19.32
  GRAVITY          CIRCULAR             0.10     0.01     0.03     0.10        1    20.82
  GRAVITY2         CIRCULAR             0.25     0.05     0.06     0.25        1   260.84
  GRAVITY3         CIRCULAR             0.28     0.06     0.07     0.28        1   316.94
  
  
  
  *********************************************************
  NOTE: The summary statistics displayed in this report are
  based on results found at every computational time step,  
  not just on results from each reporting time step.
  *********************************************************
  
  ****************
  Analysis Options
  ****************
  Flow Units ............... LPS
  Process Models:
    Rainfall/Runoff ........ NO
    RDII ................... NO
    Snowmelt ............... NO
    Groundwater ............ NO
    Flow Routing ........... YES
    Ponding Allowed ........ NO
    Water Quality .......... NO
  Flow Routing Method ...... DYNWAVE
  Starting Date ............ 05/31/2016 00:00:00
  Ending Date .............. 06/02/2016 10:00:00
  Antecedent Dry Days ...... 5.0
  Report Time Step ......... 00:00:05
  Routing Time Step ........ 5.00 sec
  Variable Time Step ....... YES
  Maximum Trials ........... 20
  Number of Threads ........ 1
  Head Tolerance ........... 0.005000 m
  
  
  *********************
  Control Actions Taken
  *********************

  
  **************************        Volume        Volume
  Flow Routing Continuity        hectare-m      10^6 ltr
  **************************     ---------     ---------
  Dry Weather Inflow .......         0.081         0.814
  Wet Weather Inflow .......         0.000         0.000
  Groundwater Inflow .......         0.000         0.000
  RDII Inflow ..............         0.000         0.000
  External Inflow ..........         0.000         0.000
  External Outflow .........         0.089         0.891
  Flooding Loss ............         0.000         0.000
  Evaporation Loss .........         0.000         0.000
  Exfiltration Loss ........         0.000         0.000
  Initial Stored Volume ....         0.000         0.000
  Final Stored Volume ......         0.000         0.002
  Continuity Error (%) .....        -9.789
  
  
  *************************
  Highest Continuity Errors
  *************************
  Node FIT1 (-33.63%)
  
  
  ***************************
  Time-Step Critical Elements
  ***************************
  Link GRAVITY (91.69%)
  
  
  ********************************
  Highest Flow Instability Indexes
  ********************************
  Link GRAVITY (10)
  Link FM2 (9)
  Link FM1 (7)
  Link FM3 (7)
  Link VSD (7)
  
  
  *************************
  Routing Time Step Summary
  *************************
  Minimum Time Step           :     1.09 sec
  Average Time Step           :     2.27 sec
  Maximum Time Step           :     5.00 sec
  Percent in Steady State     :     0.00
  Average Iterations per Step :    11.77
  Percent Not Converging      :    31.39
  
  
  ******************
  Node Depth Summary
  ******************
  
  ---------------------------------------------------------------------------------
                                 Average  Maximum  Maximum  Time of Max    Reported
                                   Depth    Depth      HGL   Occurrence   Max Depth
  Node                 Type       Meters   Meters   Meters  days hr:min      Meters
  ---------------------------------------------------------------------------------
  FIT1                 JUNCTION    13.16    25.10    25.10     0  18:08       23.57
  FIT2                 JUNCTION     7.83    13.59    19.59     0  18:21       13.55
  JCT-10               JUNCTION     7.76    10.33    15.33     0  18:21       10.32
  JCT-12               JUNCTION     2.02     2.63    12.63     0  22:54        2.63
  JCT-14               JUNCTION     0.02     0.04    11.24     1  18:43        0.04
  MANHOLE              JUNCTION     0.02     0.04     6.24     1  18:45        0.04
  OFALL                OUTFALL      0.02     0.04     4.04     1  18:45        0.04
  WW                   STORAGE      3.08     3.29    -1.71     1  18:43        3.29
  
  
  *******************
  Node Inflow Summary
  *******************
  
  -------------------------------------------------------------------------------------------------
                                  Maximum  Maximum                  Lateral       Total        Flow
                                  Lateral    Total  Time of Max      Inflow      Inflow     Balance
                                   Inflow   Inflow   Occurrence      Volume      Volume       Error
  Node                 Type           LPS      LPS  days hr:min    10^6 ltr    10^6 ltr     Percent
  -------------------------------------------------------------------------------------------------
  FIT1                 JUNCTION      0.00    30.01     0  18:08           0       0.703     -25.166
  FIT2                 JUNCTION      0.00    15.02     0  20:42           0        0.94       5.847
  JCT-10               JUNCTION      0.00    12.32     1  18:44           0       0.889      -0.089
  JCT-12               JUNCTION      0.00    12.45     1  18:44           0       0.889      -0.738
  JCT-14               JUNCTION      0.00    12.43     1  18:44           0       0.894       0.228
  MANHOLE              JUNCTION      0.00    12.44     1  18:43           0       0.892       0.162
  OFALL                OUTFALL       0.00    12.43     1  18:45           0       0.891       0.000
  WW                   STORAGE       7.00     7.00     0  18:00       0.814       0.814      15.805
  
  
  **********************
  Node Surcharge Summary
  **********************
  
  Surcharging occurs when water rises above the top of the highest conduit.
  ---------------------------------------------------------------------
                                               Max. Height   Min. Depth
                                   Hours       Above Crown    Below Rim
  Node                 Type      Surcharged         Meters       Meters
  ---------------------------------------------------------------------
  FIT1                 JUNCTION       57.41         25.000        0.000
  FIT2                 JUNCTION       56.96         13.485        0.000
  JCT-10               JUNCTION       57.12         10.228        0.000
  JCT-12               JUNCTION       56.81          2.532        0.000
  
  
  *********************
  Node Flooding Summary
  *********************
  
  Flooding refers to all water that overflows a node, whether it ponds or not.
  --------------------------------------------------------------------------
                                                             Total   Maximum
                                 Maximum   Time of Max       Flood    Ponded
                        Hours       Rate    Occurrence      Volume     Depth
  Node                 Flooded       LPS   days hr:min    10^6 ltr    Meters
  --------------------------------------------------------------------------
  FIT1                    0.01     23.05      0  19:27       0.000    25.000
  
  
  **********************
  Storage Volume Summary
  **********************
  
  --------------------------------------------------------------------------------------------------
                         Average     Avg  Evap Exfil       Maximum     Max    Time of Max    Maximum
                          Volume    Pcnt  Pcnt  Pcnt        Volume    Pcnt     Occurrence    Outflow
  Storage Unit           1000 m3    Full  Loss  Loss       1000 m3    Full    days hr:min        LPS
  --------------------------------------------------------------------------------------------------
  WW                       0.000       0     0     0         0.000       0       0  00:00      30.01
  
  
  ***********************
  Outfall Loading Summary
  ***********************
  
  -----------------------------------------------------------
                         Flow       Avg       Max       Total
                         Freq      Flow      Flow      Volume
  Outfall Node           Pcnt       LPS       LPS    10^6 ltr
  -----------------------------------------------------------
  OFALL                 99.06      5.40     12.43       0.891
  -----------------------------------------------------------
  System                99.06      5.40     12.43       0.891
  
  
  ********************
  Link Flow Summary
  ********************
  
  -----------------------------------------------------------------------------
                                 Maximum  Time of Max   Maximum    Max/    Max/
                                  |Flow|   Occurrence   |Veloc|    Full    Full
  Link                 Type          LPS  days hr:min     m/sec    Flow   Depth
  -----------------------------------------------------------------------------
  FM1                  CONDUIT     15.02     0  20:42      1.91    0.66    1.00
  FM2                  CONDUIT     12.32     1  18:44      1.57    1.71    1.00
  FM3                  CONDUIT     12.45     1  18:44      1.59    0.64    1.00
  GRAVITY              CONDUIT     12.43     1  18:44      1.90    0.60    0.78
  GRAVITY2             CONDUIT     12.44     1  18:43      2.76    0.05    0.15
  GRAVITY3             CONDUIT     12.43     1  18:45      2.40    0.04    0.14
  VSD                  PUMP        30.01     0  18:08              4.17
  
  
  ***************************
  Flow Classification Summary
  ***************************
  
  -------------------------------------------------------------------------------------
                      Adjusted    ---------- Fraction of Time in Flow Class ---------- 
                       /Actual         Up    Down  Sub   Sup   Up    Down  Norm  Inlet 
  Conduit               Length    Dry  Dry   Dry   Crit  Crit  Crit  Crit  Ltd   Ctrl  
  -------------------------------------------------------------------------------------
  FM1                     1.00   0.00  0.00  0.00  1.00  0.00  0.00  0.00  0.00  0.00
  FM2                     1.00   0.00  0.00  0.00  0.99  0.00  0.00  0.00  0.00  0.00
  FM3                     1.00   0.00  0.00  0.00  0.99  0.00  0.00  0.00  0.00  0.00
  GRAVITY                 1.02   0.01  0.05  0.00  0.00  0.00  0.95  0.00  0.00  0.00
  GRAVITY2                1.00   0.01  0.00  0.00  0.00  0.99  0.00  0.00  0.53  0.00
  GRAVITY3                1.26   0.01  0.00  0.00  0.00  0.99  0.00  0.00  0.22  0.00
  
  
  *************************
  Conduit Surcharge Summary
  *************************
  
  ----------------------------------------------------------------------------
                                                           Hours        Hours 
                         --------- Hours Full --------   Above Full   Capacity
  Conduit                Both Ends  Upstream  Dnstream   Normal Flow   Limited
  ----------------------------------------------------------------------------
  FM1                        56.96     56.96     57.41      0.01         4.29
  FM2                        56.96     56.96     57.12     10.53        13.08
  FM3                        56.81     56.81     56.95      0.01         0.01
  GRAVITY                     0.01      0.01     56.80      0.01         0.01
  
  
  ***************
  Pumping Summary
  ***************
  
  ---------------------------------------------------------------------------------------------------------
                                                  Min       Avg       Max     Total     Power    % Time Off
                        Percent   Number of      Flow      Flow      Flow    Volume     Usage    Pump Curve
  Pump                 Utilized   Start-Ups       LPS       LPS       LPS  10^6 ltr     Kw-hr    Low   High
  ---------------------------------------------------------------------------------------------------------
  VSD                     89.16        1987      0.00      4.08     30.01     0.708     30.78    0.0   10.1
  

  Analysis begun on:  Wed Jan 02 04:58:02 2019
  Analysis ended on:  Wed Jan 02 04:58:07 2019
  Total elapsed time: 00:00:05