
  EPA STORM WATER MANAGEMENT MODEL - VERSION 5.1 (Build 5.1.012)
  --------------------------------------------------------------

  
  *********************************************************
  NOTE: The summary statistics displayed in this report are
  based on results found at every computational time step,  
  not just on results from each reporting time step.
  *********************************************************
  
  ****************
  Analysis Options
  ****************
  Flow Units ............... LPS
  Process Models:
    Rainfall/Runoff ........ YES
    RDII ................... NO
    Snowmelt ............... NO
    Groundwater ............ NO
    Flow Routing ........... NO
    Water Quality .......... YES
  Infiltration Method ...... HORTON
  Starting Date ............ 07/12/2016 00:00:00
  Ending Date .............. 07/12/2016 03:00:00
  Antecedent Dry Days ...... 100.0
  Report Time Step ......... 00:01:00
  Wet Time Step ............ 00:01:00
  Dry Time Step ............ 01:00:00
  
  
  **************************        Volume         Depth
  Runoff Quantity Continuity     hectare-m            mm
  **************************     ---------       -------
  Total Precipitation ......         0.040        20.000
  Evaporation Loss .........         0.000         0.000
  Infiltration Loss ........         0.000         0.000
  Surface Runoff ...........         0.039        19.585
  Final Storage ............         0.001         0.419
  Continuity Error (%) .....        -0.023
  
  
  **************************           SF1
  Runoff Quality Continuity             kg
  **************************    ----------
  Initial Buildup ..........         0.000
  Surface Buildup ..........         5.888
  Wet Deposition ...........         0.000
  Sweeping Removal .........         0.000
  Infiltration Loss ........         0.000
  BMP Removal ..............         0.000
  Surface Runoff ...........         5.836
  Remaining Buildup ........         0.046
  Continuity Error (%) .....         0.111
  
  
  **************************        Volume        Volume
  Flow Routing Continuity        hectare-m      10^6 ltr
  **************************     ---------     ---------
  Dry Weather Inflow .......         0.000         0.000
  Wet Weather Inflow .......         0.039         0.392
  Groundwater Inflow .......         0.000         0.000
  RDII Inflow ..............         0.000         0.000
  External Inflow ..........         0.000         0.000
  External Outflow .........         0.039         0.392
  Flooding Loss ............         0.000         0.000
  Evaporation Loss .........         0.000         0.000
  Exfiltration Loss ........         0.000         0.000
  Initial Stored Volume ....         0.000         0.000
  Final Stored Volume ......         0.000         0.000
  Continuity Error (%) .....         0.000
  
  
  **************************           SF1
  Quality Routing Continuity            kg
  **************************    ----------
  Dry Weather Inflow .......         0.000
  Wet Weather Inflow .......         5.833
  Groundwater Inflow .......         0.000
  RDII Inflow ..............         0.000
  External Inflow ..........         0.000
  External Outflow .........         5.833
  Flooding Loss ............         0.000
  Exfiltration Loss ........         0.000
  Mass Reacted .............         0.000
  Initial Stored Mass ......         0.000
  Final Stored Mass ........         0.000
  Continuity Error (%) .....         0.000
  
  
  ***************************
  Subcatchment Runoff Summary
  ***************************
  
  --------------------------------------------------------------------------------------------------------
                            Total      Total      Total      Total      Total       Total     Peak  Runoff
                           Precip      Runon       Evap      Infil     Runoff      Runoff   Runoff   Coeff
  Subcatchment                 mm         mm         mm         mm         mm    10^6 ltr      LPS
  --------------------------------------------------------------------------------------------------------
  1                         20.00       0.00       0.00       0.00      19.71        0.20    27.78   0.986
  2                         20.00      19.71       0.00       0.00      39.17        0.39    55.56   0.986
  
  
  ****************************
  Subcatchment Washoff Summary
  ****************************
  
  ----------------------------------
                                 SF1
  Subcatchment                    kg
  ----------------------------------
  1                            1.971
  2                            5.836
  ----------------------------------
  System                       7.807
  

  Analysis begun on:  Wed Jan 02 08:39:54 2019
  Analysis ended on:  Wed Jan 02 08:39:54 2019
  Total elapsed time: < 1 sec