
  EPA STORM WATER MANAGEMENT MODEL - VERSION 5.1 (Build 5.1.013)
  --------------------------------------------------------------

            Stevens Creek - Water Quality Outlet Structure Analysis 
            Natalie Postel 
            CDM 
  
  
  *********************************************************
  NOTE: The summary statistics displayed in this report are
  based on results found at every computational time step,  
  not just on results from each reporting time step.
  *********************************************************
  
  ****************
  Analysis Options
  ****************
  Flow Units ............... CFS
  Process Models:
    Rainfall/Runoff ........ YES
    RDII ................... NO
    Snowmelt ............... NO
    Groundwater ............ NO
    Flow Routing ........... YES
    Ponding Allowed ........ NO
    Water Quality .......... NO
  Infiltration Method ...... GREEN_AMPT
  Flow Routing Method ...... DYNWAVE
  Surcharge Method ......... EXTRAN
  Starting Date ............ 01/01/1984 12:00:00
  Ending Date .............. 08/31/1984 04:00:00
  Antecedent Dry Days ...... 0.0
  Report Time Step ......... 00:30:00
  Wet Time Step ............ 00:20:00
  Dry Time Step ............ 00:20:00
  Routing Time Step ........ 300.00 sec
  Variable Time Step ....... YES
  Maximum Trials ........... 8
  Number of Threads ........ 1
  Head Tolerance ........... 0.005000 ft
  
  
  **************************        Volume         Depth
  Runoff Quantity Continuity     acre-feet        inches
  **************************     ---------       -------
  Total Precipitation ......      5605.629        36.696
  Evaporation Loss .........      1754.363        11.485
  Infiltration Loss ........      3018.389        19.759
  Surface Runoff ...........       927.745         6.073
  Final Storage ............         0.000         0.000
  Continuity Error (%) .....        -1.692
  
  
  **************************        Volume        Volume
  Flow Routing Continuity        acre-feet      10^6 gal
  **************************     ---------     ---------
  Dry Weather Inflow .......         0.000         0.000
  Wet Weather Inflow .......       919.753       299.715
  Groundwater Inflow .......         0.000         0.000
  RDII Inflow ..............         0.000         0.000
  External Inflow ..........         0.000         0.000
  External Outflow .........       869.325       283.283
  Flooding Loss ............         0.000         0.000
  Evaporation Loss .........        46.710        15.221
  Exfiltration Loss ........         0.000         0.000
  Initial Stored Volume ....         0.000         0.000
  Final Stored Volume ......         0.362         0.118
  Continuity Error (%) .....         0.365
  
  
  *************************
  Highest Continuity Errors
  *************************
  Node 23 (-2.34%)
  Node 24 (1.63%)
  
  
  ***************************
  Time-Step Critical Elements
  ***************************
  Link R110 (10.60%)
  
  
  ********************************
  Highest Flow Instability Indexes
  ********************************
  All links are stable.
  
  
  *************************
  Routing Time Step Summary
  *************************
  Minimum Time Step           :     9.71 sec
  Average Time Step           :   288.70 sec
  Maximum Time Step           :   300.00 sec
  Percent in Steady State     :     0.00
  Average Iterations per Step :     2.01
  Percent Not Converging      :     0.02
  
  
  ***************************
  Subcatchment Runoff Summary
  ***************************
  
  ------------------------------------------------------------------------------------------------------------------------------
                            Total      Total      Total      Total     Imperv       Perv      Total       Total     Peak  Runoff
                           Precip      Runon       Evap      Infil     Runoff     Runoff     Runoff      Runoff   Runoff   Coeff
  Subcatchment                 in         in         in         in         in         in         in    10^6 gal      CFS
  ------------------------------------------------------------------------------------------------------------------------------
  SC394                     36.70       0.00      10.55      21.47       1.95       3.35       5.30       22.07   167.76   0.144
  SC390                     36.70       0.00      12.41      16.85       5.55       2.55       8.10       52.07   342.39   0.221
  SC382-386                 36.70       0.00      13.64      14.08       7.28       2.35       9.63       64.43   415.42   0.263
  SC370-366                 36.70       0.00      14.49      21.53       1.11       0.00       1.12        7.76     3.19   0.030
  SC378-374                 36.70       0.00       8.63      24.55       1.79       2.38       4.17       19.36   157.45   0.114
  SC362                     36.70       0.00       8.05      24.65       2.66       1.92       4.58       14.20   113.46   0.125
  SC346                     36.70       0.00      10.28      21.33       4.14       1.59       5.73       26.82   181.84   0.156
  SC350                     36.70       0.00       9.61      22.44       2.86       2.47       5.32       22.81   169.67   0.145
  SC354                     36.70       0.00       9.41      23.24       1.90       2.75       4.66       19.84   155.74   0.127
  SC358                     36.70       0.00      13.49      12.32       9.26       2.35      11.61       52.93   347.99   0.316
  
  
  ******************
  Node Depth Summary
  ******************
  
  ---------------------------------------------------------------------------------
                                 Average  Maximum  Maximum  Time of Max    Reported
                                   Depth    Depth      HGL   Occurrence   Max Depth
  Node                 Type         Feet     Feet     Feet  days hr:min        Feet
  ---------------------------------------------------------------------------------
  15                   JUNCTION     0.03     3.11  1305.11   163  13:03        3.06
  18                   JUNCTION     0.26    10.57  1236.57   163  13:56       10.56
  19                   JUNCTION     0.01     1.48  1277.48   163  13:02        1.47
  20                   JUNCTION     0.03     2.78  1254.78   163  13:06        2.73
  21                   JUNCTION     0.06     5.10  1239.10   163  13:14        4.79
  23                   JUNCTION     0.09     4.06  1264.06   163  13:03        4.06
  24                   JUNCTION     0.09     5.16  1245.16   163  13:29        5.16
  22                   OUTFALL      0.08     4.96  1214.96   163  13:56        4.95
  DetPond              STORAGE      0.30     4.77  1264.77   163  13:10        4.51
  
  
  *******************
  Node Inflow Summary
  *******************
  
  -------------------------------------------------------------------------------------------------
                                  Maximum  Maximum                  Lateral       Total        Flow
                                  Lateral    Total  Time of Max      Inflow      Inflow     Balance
                                   Inflow   Inflow   Occurrence      Volume      Volume       Error
  Node                 Type           CFS      CFS  days hr:min    10^6 gal    10^6 gal     Percent
  -------------------------------------------------------------------------------------------------
  15                   JUNCTION    167.76   167.76   163  13:00          22          22      -0.682
  18                   JUNCTION    113.46  1166.17   163  13:22        14.1         262       0.906
  19                   JUNCTION    347.99   347.99   163  13:00        52.3        52.3      -0.726
  20                   JUNCTION    155.74   492.80   163  13:00        19.7        70.8       0.022
  21                   JUNCTION    169.67   610.41   163  13:02        22.6        92.3      -0.362
  23                   JUNCTION    342.39   770.07   163  13:00        51.6         138      -2.284
  24                   JUNCTION    160.64   912.56   163  13:00          27         161       1.658
  22                   OUTFALL     181.84   850.23   163  13:53        26.6         283       0.000
  DetPond              STORAGE     415.42   415.42   163  13:00        63.8        65.4       0.307
  
  
  **********************
  Node Surcharge Summary
  **********************
  
  No nodes were surcharged.
  
  
  *********************
  Node Flooding Summary
  *********************
  
  No nodes were flooded.
  
  
  **********************
  Storage Volume Summary
  **********************
  
  --------------------------------------------------------------------------------------------------
                         Average     Avg  Evap Exfil       Maximum     Max    Time of Max    Maximum
                          Volume    Pcnt  Pcnt  Pcnt        Volume    Pcnt     Occurrence    Outflow
  Storage Unit          1000 ft3    Full  Loss  Loss      1000 ft3    Full    days hr:min        CFS
  --------------------------------------------------------------------------------------------------
  DetPond                 34.814       2     0     0       718.532      34     163  13:10     289.65
  
  
  ***********************
  Outfall Loading Summary
  ***********************
  
  -----------------------------------------------------------
                         Flow       Avg       Max       Total
                         Freq      Flow      Flow      Volume
  Outfall Node           Pcnt       CFS       CFS    10^6 gal
  -----------------------------------------------------------
  22                    87.07      4.58    850.23     283.262
  -----------------------------------------------------------
  System                87.07      4.58    850.23     283.262
  
  
  ********************
  Link Flow Summary
  ********************
  
  -----------------------------------------------------------------------------
                                 Maximum  Time of Max   Maximum    Max/    Max/
                                  |Flow|   Occurrence   |Veloc|    Full    Full
  Link                 Type          CFS  days hr:min    ft/sec    Flow   Depth
  -----------------------------------------------------------------------------
  R120                 CHANNEL    815.20   163  13:56      4.49    0.02    0.39
  R1670                CHANNEL    613.93   163  13:31      2.86    0.08    0.76
  R560                 CHANNEL    339.28   163  13:02     15.54    0.00    0.13
  R570                 CHANNEL    457.88   163  13:06     14.48    0.02    0.39
  R110                 CHANNEL    544.79   163  13:16     38.38    0.02    0.46
  R2040                CHANNEL    754.62   163  13:03      3.11    0.02    0.32
  R160                 CHANNEL    159.10   163  13:05      6.05    0.01    0.20
  FCOutlet             DUMMY      289.65   163  13:12
  
  
  ***************************
  Flow Classification Summary
  ***************************
  
  -------------------------------------------------------------------------------------
                      Adjusted    ---------- Fraction of Time in Flow Class ---------- 
                       /Actual         Up    Down  Sub   Sup   Up    Down  Norm  Inlet 
  Conduit               Length    Dry  Dry   Dry   Crit  Crit  Crit  Crit  Ltd   Ctrl  
  -------------------------------------------------------------------------------------
  R120                    1.00   0.04  0.00  0.00  0.96  0.00  0.00  0.00  0.00  0.00
  R1670                   1.00   0.04  0.00  0.00  0.96  0.00  0.00  0.00  0.95  0.00
  R560                    1.00   0.20  0.27  0.00  0.53  0.00  0.00  0.00  0.86  0.00
  R570                    1.00   0.10  0.10  0.00  0.80  0.00  0.00  0.00  0.92  0.00
  R110                    1.00   0.04  0.06  0.00  0.90  0.00  0.00  0.00  0.95  0.00
  R2040                   1.00   0.04  0.00  0.00  0.96  0.00  0.00  0.00  0.35  0.00
  R160                    1.00   0.04  0.24  0.00  0.71  0.00  0.00  0.00  0.95  0.00
  
  
  *************************
  Conduit Surcharge Summary
  *************************
  
  ----------------------------------------------------------------------------
                                                           Hours        Hours 
                         --------- Hours Full --------   Above Full   Capacity
  Conduit                Both Ends  Upstream  Dnstream   Normal Flow   Limited
  ----------------------------------------------------------------------------
  R1670                       0.01      0.01      0.98      0.01         0.01
  

  Analysis begun on:  Wed Jan 02 09:04:02 2019
  Analysis ended on:  Wed Jan 02 09:04:26 2019
  Total elapsed time: 00:00:24