
  EPA STORM WATER MANAGEMENT MODEL - VERSION 5.1 (Build 5.1.013)
  --------------------------------------------------------------

  WARNING 04: minimum elevation drop used for Conduit LKSerene_ovfl1
  
  *********************************************************
  NOTE: The summary statistics displayed in this report are
  based on results found at every computational time step,  
  not just on results from each reporting time step.
  *********************************************************
  
  ****************
  Analysis Options
  ****************
  Flow Units ............... CFS
  Process Models:
    Rainfall/Runoff ........ YES
    RDII ................... NO
    Snowmelt ............... NO
    Groundwater ............ NO
    Flow Routing ........... YES
    Ponding Allowed ........ YES
    Water Quality .......... NO
  Infiltration Method ...... HORTON
  Flow Routing Method ...... DYNWAVE
  Surcharge Method ......... EXTRAN
  Starting Date ............ 08/01/2002 00:00:00
  Ending Date .............. 10/01/2002 09:00:00
  Antecedent Dry Days ...... 0.0
  Report Time Step ......... 00:01:00
  Wet Time Step ............ 00:01:00
  Dry Time Step ............ 01:00:00
  Routing Time Step ........ 10.00 sec
  Variable Time Step ....... YES
  Maximum Trials ........... 8
  Number of Threads ........ 1
  Head Tolerance ........... 0.005000 ft
  
  
  **************************        Volume         Depth
  Runoff Quantity Continuity     acre-feet        inches
  **************************     ---------       -------
  Total Precipitation ......      4727.777        10.600
  Evaporation Loss .........      1832.263         4.108
  Infiltration Loss ........       971.910         2.179
  Surface Runoff ...........      1923.608         4.313
  Final Storage ............         0.000         0.000
  Continuity Error (%) .....        -0.000
  
  
  **************************        Volume        Volume
  Flow Routing Continuity        acre-feet      10^6 gal
  **************************     ---------     ---------
  Dry Weather Inflow .......         0.000         0.000
  Wet Weather Inflow .......      1923.534       626.812
  Groundwater Inflow .......         0.000         0.000
  RDII Inflow ..............         0.000         0.000
  External Inflow ..........       652.097       212.495
  External Outflow .........     16566.811      5398.543
  Flooding Loss ............    342132.885    111489.112
  Evaporation Loss .........      2074.846       676.120
  Exfiltration Loss ........         0.000         0.000
  Initial Stored Volume ....       188.093        61.293
  Final Stored Volume ......       844.513       275.197
  Continuity Error (%) .....    -12984.486
  
  
  *************************
  Highest Continuity Errors
  *************************
  Node 0200 (-92.73%)
  Node 1300 (-33.70%)
  Node 1350 (-22.95%)
  Node 0150 (-15.15%)
  Node 7999 (6.93%)
  
  
  ***************************
  Time-Step Critical Elements
  ***************************
  Node 0150 (51.36%)
  Link CULV-1350A (17.32%)
  Node 1300 (14.16%)
  Node 1500 (8.72%)
  
  
  ********************************
  Highest Flow Instability Indexes
  ********************************
  Link Weir1500b (125)
  Link Weir1500a (124)
  Link Weir0150a (109)
  Link Weir1300a (106)
  Link CULV-1350A (103)
  
  
  *************************
  Routing Time Step Summary
  *************************
  Minimum Time Step           :     0.50 sec
  Average Time Step           :     3.84 sec
  Maximum Time Step           :    10.00 sec
  Percent in Steady State     :     0.00
  Average Iterations per Step :     7.99
  Percent Not Converging      :    99.81
  
  
  ***************************
  Subcatchment Runoff Summary
  ***************************
  
  ------------------------------------------------------------------------------------------------------------------------------
                            Total      Total      Total      Total     Imperv       Perv      Total       Total     Peak  Runoff
                           Precip      Runon       Evap      Infil     Runoff     Runoff     Runoff      Runoff   Runoff   Coeff
  Subcatchment                 in         in         in         in         in         in         in    10^6 gal      CFS
  ------------------------------------------------------------------------------------------------------------------------------
  BSL0100                   10.60       0.00       3.94       1.02       5.64       0.00       5.64       58.80   311.40   0.532
  BSL0200                   10.60       0.00       4.64       3.13       1.66       1.18       2.83       84.60   482.08   0.267
  BSL0300                   10.60       0.00       3.57       0.08       6.95       0.00       6.95       24.40   171.79   0.656
  BSL0400                   10.60       0.00       4.07       2.56       1.95       2.02       3.97       22.34   123.95   0.375
  BSL0500                   10.60       0.00       3.05       0.02       7.53       0.00       7.53        4.05    38.97   0.710
  BSL0600                   10.60       0.00       3.42       3.04       2.18       1.96       4.14       20.48   120.32   0.390
  BSL0700                   10.60       0.00       4.42       1.06       5.12       0.00       5.12       85.89   370.29   0.483
  BSL0800                   10.60       0.00       4.02       1.93       2.05       2.60       4.65      104.80   578.04   0.439
  BSL0900                   10.60       0.00       2.51       1.75       6.34       0.00       6.34        2.67    25.97   0.598
  BSL1000                   10.60       0.00       3.11       2.28       3.33       1.88       5.21       11.37    82.41   0.491
  BSL1100                   10.60       0.00       3.07       0.41       7.12       0.00       7.12        8.70    78.68   0.671
  BSL1200                   10.60       0.00       3.32       4.06       2.06       1.16       3.22       14.60    97.57   0.303
  BSL1300                   10.60       0.00       3.67       0.04       6.88       0.00       6.88       28.39   193.54   0.649
  BSL1400                   10.60       0.00       3.61       2.87       2.93       1.19       4.12       53.47   366.03   0.389
  BSL1500                   10.60       0.00       3.46       0.16       6.98       0.00       6.98       21.11   154.74   0.658
  BSL1600                   10.60       0.00       4.40       2.61       2.26       1.33       3.59       81.12   508.47   0.339
  
  
  ******************
  Node Depth Summary
  ******************
  
  ---------------------------------------------------------------------------------
                                 Average  Maximum  Maximum  Time of Max    Reported
                                   Depth    Depth      HGL   Occurrence   Max Depth
  Node                 Type         Feet     Feet     Feet  days hr:min        Feet
  ---------------------------------------------------------------------------------
  0055                 JUNCTION    19.59    23.29   119.48     0  14:19       23.25
  0060                 JUNCTION    20.41    24.11   119.48     0  14:19       24.09
  0065                 JUNCTION    20.79    25.05   120.37     0  13:04       24.61
  0070                 JUNCTION    22.10    26.38   120.39     0  13:04       25.92
  7999                 JUNCTION    23.35    24.03    64.03    61  00:45       24.03
  8000                 JUNCTION    20.35    21.03    64.03    61  00:22       21.03
  8001                 JUNCTION    19.35    20.03    64.03    61  00:37       20.03
  8002                 JUNCTION    18.35    19.04    64.04    61  03:57       19.03
  8003                 JUNCTION    17.35    18.03    64.03    61  06:13       18.03
  8004                 JUNCTION    16.35    17.04    64.04    60  22:49       17.04
  8005                 JUNCTION    15.35    16.04    64.04    61  02:01       16.04
  8006                 JUNCTION    14.35    15.04    64.04    60  23:19       15.04
  8007                 JUNCTION    13.35    14.04    64.04    61  03:52       14.04
  0010                 OUTFALL      7.00     7.00    89.77     0  00:00        7.00
  7998                 OUTFALL     33.35    34.03    64.03    61  00:00       34.03
  0015                 STORAGE      3.04     3.25    93.01     0  15:12        3.25
  0020                 STORAGE      6.77     7.51    99.76     0  15:11        7.51
  0025                 STORAGE      9.79    11.17   104.26     0  15:10       11.17
  0030                 STORAGE     12.92    14.86   108.22     0  15:08       14.86
  0035                 STORAGE     17.92    21.10   116.87     0  15:03       21.10
  0040                 STORAGE     18.81    22.05   117.33     0  15:03       22.05
  0045                 STORAGE     18.78    22.10   117.80     0  15:01       22.10
  0050                 STORAGE     19.01    22.43   118.35     0  15:00       22.43
  0100                 STORAGE     41.57    45.59   120.59     0  14:59       45.55
  0300                 STORAGE     16.93    50.00   145.00     0  08:44       50.00
  0500                 STORAGE     21.59    25.47   120.47     0  12:50       25.47
  0700                 STORAGE     41.58    45.42   120.42     0  12:52       45.41
  0900                 STORAGE     26.58    30.46   120.46     0  12:53       30.46
  1100                 STORAGE     31.59    35.47   120.47     0  12:52       35.45
  1300                 STORAGE     35.82    50.00   125.00     0  08:22       50.00
  1500                 STORAGE     32.39    50.00   135.00     0  07:29       50.00
  1350                 STORAGE     21.51    39.61   134.61     0  09:58       39.57
  0250                 STORAGE     16.90    37.35   132.25     0  12:57       37.34
  0200                 STORAGE     17.58    37.49   131.69     0  12:57       37.30
  0150                 STORAGE     26.48    50.00   140.40     0  08:36       50.00
  
  
  *******************
  Node Inflow Summary
  *******************
  
  -------------------------------------------------------------------------------------------------
                                  Maximum  Maximum                  Lateral       Total        Flow
                                  Lateral    Total  Time of Max      Inflow      Inflow     Balance
                                   Inflow   Inflow   Occurrence      Volume      Volume       Error
  Node                 Type           CFS      CFS  days hr:min    10^6 gal    10^6 gal     Percent
  -------------------------------------------------------------------------------------------------
  0055                 JUNCTION      0.00   188.93     0  10:49           0    5.4e+003       0.014
  0060                 JUNCTION      0.00   206.45     0  09:32           0   5.41e+003       0.020
  0065                 JUNCTION      0.00   234.46     0  08:42           0    5.4e+003      -0.078
  0070                 JUNCTION      0.00   293.15     0  08:41           0   5.41e+003       0.072
  7999                 JUNCTION      0.00    94.08    29  15:03           0   1.41e+003       7.448
  8000                 JUNCTION      0.00    12.26    60  22:15           0        78.1      39.077
  8001                 JUNCTION      0.00    16.65    29  20:32           0         111       2.849
  8002                 JUNCTION      0.00    21.41    31  01:33           0         129       2.632
  8003                 JUNCTION      0.00    23.91    43  08:44           0         160       2.208
  8004                 JUNCTION      0.00    26.06    61  08:54           0         133       2.779
  8005                 JUNCTION      0.00    34.29    53  06:57           0         217       1.741
  8006                 JUNCTION      0.00    37.61    60  18:00           0         218       1.762
  8007                 JUNCTION      0.00    38.53    61  03:50           0         235       1.664
  0010                 OUTFALL       0.00   147.60     0  15:12           0    5.4e+003       0.000
  7998                 OUTFALL       0.00    12.91     1  10:16           0         213       0.000
  0015                 STORAGE       0.00   147.60     0  15:12           0    5.4e+003       0.000
  0020                 STORAGE       0.00   147.60     0  15:07           0    5.4e+003       0.002
  0025                 STORAGE       0.00   147.63     0  15:05           0    5.4e+003       0.001
  0030                 STORAGE       0.00   147.71     0  15:03           0    5.4e+003       0.002
  0035                 STORAGE       0.00   148.10     0  15:02           0    5.4e+003       0.002
  0040                 STORAGE       0.00   158.92     0  12:38           0    5.4e+003       0.002
  0045                 STORAGE       0.00   160.29     0  12:37           0    5.4e+003       0.003
  0050                 STORAGE       0.00   171.83     0  12:35           0    5.4e+003       0.004
  0100                 STORAGE     759.09 90696.30     0  20:00         143   8.98e+004     -36.308
  0300                 STORAGE     293.24   293.24     0  09:30        46.7        85.6       0.185
  0500                 STORAGE     159.29  2735.54     0  08:46        24.5   4.09e+003       1.193
  0700                 STORAGE     921.35 48730.01     0  08:37         191   1.48e+005      -2.009
  0900                 STORAGE     108.37  8636.28     0  08:37          14   1.54e+004       0.660
  1100                 STORAGE     176.25  1475.94    15  13:19        23.3    4.6e+003       0.459
  1300                 STORAGE     550.75 36297.10     0  20:20        81.9   1.15e+005     -25.203
  1500                 STORAGE     663.21 10928.50     0  11:21         102   3.76e+004      -0.635
  1350                 STORAGE       0.00  9685.51    48  14:19           0   3.31e+004     -18.668
  0250                 STORAGE       0.00   193.56     0  09:07           0         129       1.321
  0200                 STORAGE       0.00   343.97     0  13:56           0         128     -48.115
  0150                 STORAGE       0.00 70299.22     0  14:59           0   1.05e+005     -13.154
  
  
  **********************
  Node Surcharge Summary
  **********************
  
  Surcharging occurs when water rises above the top of the highest conduit.
  ---------------------------------------------------------------------
                                               Max. Height   Min. Depth
                                   Hours       Above Crown    Below Rim
  Node                 Type      Surcharged           Feet         Feet
  ---------------------------------------------------------------------
  0055                 JUNCTION     1461.30          4.194       26.706
  0060                 JUNCTION     1462.26          5.012       25.888
  0065                 JUNCTION     1463.99         14.554       24.946
  0070                 JUNCTION     1464.14         15.885       23.615
  
  
  *********************
  Node Flooding Summary
  *********************
  
  Flooding refers to all water that overflows a node, whether it ponds or not.
  --------------------------------------------------------------------------
                                                             Total   Maximum
                                 Maximum   Time of Max       Flood    Ponded
                        Hours       Rate    Occurrence      Volume     Depth
  Node                 Flooded       CFS   days hr:min    10^6 gal      Feet
  --------------------------------------------------------------------------
  0300                    3.70    126.57      0  10:02       6.919     0.000
  1300                  399.28  17356.17      0  17:12   63586.270     0.000
  1500                  205.81   3956.34      0  12:27    6590.792     0.000
  0150                  170.81  34100.55      0  14:09   51965.243     0.000
  
  
  **********************
  Storage Volume Summary
  **********************
  
  --------------------------------------------------------------------------------------------------
                         Average     Avg  Evap Exfil       Maximum     Max    Time of Max    Maximum
                          Volume    Pcnt  Pcnt  Pcnt        Volume    Pcnt     Occurrence    Outflow
  Storage Unit          1000 ft3    Full  Loss  Loss      1000 ft3    Full    days hr:min        CFS
  --------------------------------------------------------------------------------------------------
  0015                     0.462       0     0     0         0.527       0       0  15:12     147.60
  0020                     2.298       2     0     0         2.822       2       0  15:11     147.60
  0025                     4.806       4     0     0         6.240       5       0  15:10     147.60
  0030                     8.365       7     0     0        11.041       9       0  15:08     147.63
  0035                    16.109      13     0     0        22.259      18       0  15:03     147.71
  0040                   177.418      14     0     0       243.163      19       0  15:03     148.10
  0045                    17.680      14     0     0        24.415      20       0  15:01     158.92
  0050                    90.570      14     0     0       125.781      20       0  15:00     160.29
  0100                    17.226      70     0     0        20.596      83       0  14:59   71992.16
  0300                     2.400      16     0     0        15.155     100       0  08:44     193.56
  0500                     1.277      20     0     0         1.745      27       0  12:50    1089.28
  0700                    32.805      71     0     0        38.633      83       0  12:52   37427.54
  0900                     0.779      33     0     0         0.984      41       0  12:53   15311.37
  1100                     2.078      42     0     0         2.568      52       0  12:52    1350.30
  1300                     5.900      64     0     0         9.225     100       0  08:22   37031.36
  1500                     4.615      50     0     0         9.188     100       0  07:29    9685.51
  1350                   232.274      19     0     0       784.484      63       0  09:58   10696.10
  0250                     0.207       5     0     0         1.940      50       0  12:57     203.62
  0200                    15.547      12     0     0        70.258      56       0  12:57     518.02
  0150                     0.071      35     0     0         0.202     100       0  08:36   89935.89
  
  
  ***********************
  Outfall Loading Summary
  ***********************
  
  -----------------------------------------------------------
                         Flow       Avg       Max       Total
                         Freq      Flow      Flow      Volume
  Outfall Node           Pcnt       CFS       CFS    10^6 gal
  -----------------------------------------------------------
  0010                  99.76    136.83    147.60    5397.187
  7998                 100.00      5.38     12.91     213.435
  -----------------------------------------------------------
  System                99.88    142.21    160.25    5610.621
  
  
  ********************
  Link Flow Summary
  ********************
  
  -----------------------------------------------------------------------------
                                 Maximum  Time of Max   Maximum    Max/    Max/
                                  |Flow|   Occurrence   |Veloc|    Full    Full
  Link                 Type          CFS  days hr:min    ft/sec    Flow   Depth
  -----------------------------------------------------------------------------
  DUMMY0               CONDUIT     12.66     1  10:16      0.00    0.00    0.90
  DUMMY1               CONDUIT     12.26    60  22:15      0.00    0.00    0.75
  DUMMY2               CONDUIT     16.65    29  20:32      0.00    0.00    0.73
  DUMMY3               CONDUIT     21.41    31  01:33      0.01    0.00    0.72
  DUMMY4               CONDUIT     23.91    43  08:44      0.01    0.00    0.70
  DUMMY5               CONDUIT     26.85    56  19:19      0.01    0.00    0.68
  DUMMY6               CONDUIT     34.29    53  06:57      0.01    0.00    0.67
  DUMMY7               CONDUIT     37.61    60  18:00      0.01    0.00    0.65
  DUMMY8               CONDUIT     38.53    61  03:50      0.01    0.00    0.63
  CULV-20              CONDUIT    147.60     0  15:12     12.00    2.46    0.95
  CULV-25              CONDUIT    147.60     0  15:07     11.75    2.43    1.00
  CULV-30              CONDUIT    147.63     0  15:05     11.75    3.11    1.00
  CULV-35              CONDUIT    147.71     0  15:03      9.29    2.28    1.00
  CULV-40A             CONDUIT     49.37     0  15:02      6.98    1.21    1.00
  CULV-40B             CONDUIT     49.37     0  15:02      6.98    1.27    1.00
  CULV-40C             CONDUIT     49.37     0  15:02      6.98    1.15    1.00
  CULV-45A             CONDUIT     79.46     0  12:38      6.32    1.26    1.00
  CULV-45B             CONDUIT     79.46     0  12:38      6.32    1.11    1.00
  CULV-50              CONDUIT    160.29     0  12:37      6.68    1.67    1.00
  CULV-55A             CONDUIT     85.91     0  12:35      6.84    3.66    1.00
  CULV-55B             CONDUIT     85.91     0  12:35      6.84    3.34    1.00
  CHAN-60              CHANNEL    188.93     0  10:49      3.96    0.03    1.00
  CULV-65A             CONDUIT     70.18     0  09:32      7.29    2.64    1.00
  CULV-65B             CONDUIT    136.26     0  09:32      8.57    2.41    1.00
  CHAN-70              CHANNEL    234.46     0  08:42      1.74    0.06    1.00
  CULV-100A            CONDUIT    145.88     0  08:41     15.16    1.13    1.00
  CULV-100B            CONDUIT    147.29     0  08:41     15.31    1.45    1.00
  CHAN-700             CHANNEL  21556.93     0  08:36      3.10    0.31    1.00
  LKSerene_ovfl1       CONDUIT     13.98     0  08:15      7.96   73.00    1.00
  CULV-1350A           CONDUIT    182.08     0  09:59     28.83    4.05    1.00
  CULV-1350B           CONDUIT    182.08     0  09:59     28.83    4.05    1.00
  CHAN-900             CHANNEL  15307.18     0  08:18      3.74    0.07    1.00
  CULV-15              CONDUIT    147.60     0  15:12     12.34    0.71    0.91
  CULV-300A            CONDUIT    193.56     0  09:07     39.43    3.86    1.00
  CULV-300B            CONDUIT    203.62     0  08:47     12.80    2.85    1.00
  CULV-300C            CONDUIT    518.02     0  12:58    >50.00    2.54    1.00
  Crowell_ovfl         CONDUIT   2610.66     0  08:46      1.34    1.22    1.00
  LKSerene_ovfl2       CONDUIT   1474.60    15  13:19      1.15    0.14    1.00
  Weir1500a            WEIR      1528.59     0  11:21                      0.76
  Weir1500b            WEIR      8971.65     0  11:21                      0.74
  Weir1300a            WEIR     37031.36    12  09:46                      0.54
  Weir0150a            WEIR     89935.89     0  09:33                      0.90
  
  
  ***************************
  Flow Classification Summary
  ***************************
  
  -------------------------------------------------------------------------------------
                      Adjusted    ---------- Fraction of Time in Flow Class ---------- 
                       /Actual         Up    Down  Sub   Sup   Up    Down  Norm  Inlet 
  Conduit               Length    Dry  Dry   Dry   Crit  Crit  Crit  Crit  Ltd   Ctrl  
  -------------------------------------------------------------------------------------
  DUMMY0                110.47   0.00  0.00  0.00  1.00  0.00  0.00  0.00  0.00  0.00
  DUMMY1                 61.00   0.00  0.00  0.00  1.00  0.00  0.00  0.00  0.00  0.00
  DUMMY2                  8.85   0.00  0.00  0.00  1.00  0.00  0.00  0.00  0.00  0.00
  DUMMY3                  9.76   0.00  0.00  0.00  1.00  0.00  0.00  0.00  0.00  0.00
  DUMMY4                 10.58   0.00  0.00  0.00  1.00  0.00  0.00  0.00  0.00  0.00
  DUMMY5                 11.33   0.00  0.00  0.00  1.00  0.00  0.00  0.00  0.00  0.00
  DUMMY6                 12.03   0.00  0.00  0.00  1.00  0.00  0.00  0.00  0.00  0.00
  DUMMY7                 12.69   0.00  0.00  0.00  1.00  0.00  0.00  0.00  0.00  0.00
  DUMMY8                 13.32   0.00  0.00  0.00  1.00  0.00  0.00  0.00  0.00  0.00
  CULV-20                 1.00   0.00  0.00  0.00  0.00  0.00  0.00  1.00  0.00  0.00
  CULV-25                 1.00   0.00  0.00  0.00  1.00  0.00  0.00  0.00  0.00  0.00
  CULV-30                 1.00   0.00  0.00  0.00  1.00  0.00  0.00  0.00  0.00  0.00
  CULV-35                 1.00   0.00  0.00  0.00  1.00  0.00  0.00  0.00  0.00  0.00
  CULV-40A                1.56   0.00  0.00  0.00  1.00  0.00  0.00  0.00  0.00  0.00
  CULV-40B                1.53   0.00  0.00  0.00  1.00  0.00  0.00  0.00  0.00  0.00
  CULV-40C                1.59   0.00  0.00  0.00  1.00  0.00  0.00  0.00  0.00  0.00
  CULV-45A                1.00   0.00  0.00  0.00  1.00  0.00  0.00  0.00  0.00  0.00
  CULV-45B                1.00   0.00  0.00  0.00  1.00  0.00  0.00  0.00  0.00  0.00
  CULV-50                 1.00   0.00  0.00  0.00  1.00  0.00  0.00  0.00  0.00  0.00
  CULV-55A                1.00   0.00  0.00  0.00  1.00  0.00  0.00  0.00  0.00  0.00
  CULV-55B                1.00   0.00  0.00  0.00  1.00  0.00  0.00  0.00  0.00  0.00
  CHAN-60                 1.00   0.00  0.00  0.00  1.00  0.00  0.00  0.00  0.00  0.00
  CULV-65A                1.00   0.00  0.00  0.00  1.00  0.00  0.00  0.00  0.00  0.00
  CULV-65B                1.00   0.00  0.00  0.00  1.00  0.00  0.00  0.00  0.00  0.00
  CHAN-70                 1.00   0.00  0.00  0.00  1.00  0.00  0.00  0.00  0.00  0.00
  CULV-100A               8.00   0.00  0.00  0.00  1.00  0.00  0.00  0.00  0.00  0.00
  CULV-100B               7.06   0.00  0.00  0.00  1.00  0.00  0.00  0.00  0.00  0.00
  CHAN-700                1.00   0.00  0.00  0.00  1.00  0.00  0.00  0.00  0.00  0.00
  LKSerene_ovfl1          1.00   0.00  0.00  0.00  1.00  0.00  0.00  0.00  0.00  0.00
  CULV-1350A              1.12   0.00  0.00  0.00  0.78  0.00  0.00  0.22  0.00  0.00
  CULV-1350B              1.12   0.00  0.00  0.00  0.78  0.00  0.00  0.22  0.00  0.00
  CHAN-900                1.00   0.00  0.00  0.00  1.00  0.00  0.00  0.00  0.00  0.00
  CULV-15                 1.00   0.00  0.00  0.00  1.00  0.00  0.00  0.00  0.00  0.00
  CULV-300A               1.10   0.00  0.00  0.00  1.00  0.00  0.00  0.00  0.00  0.00
  CULV-300B               1.10   0.00  0.00  0.00  1.00  0.00  0.00  0.00  0.00  0.00
  CULV-300C               1.00   0.00  0.00  0.00  0.95  0.05  0.00  0.00  0.00  0.00
  Crowell_ovfl            1.00   0.00  0.00  0.00  1.00  0.00  0.00  0.00  0.00  0.00
  LKSerene_ovfl2          1.00   0.00  0.00  0.00  1.00  0.00  0.00  0.00  0.00  0.00
  
  
  *************************
  Conduit Surcharge Summary
  *************************
  
  ----------------------------------------------------------------------------
                                                           Hours        Hours 
                         --------- Hours Full --------   Above Full   Capacity
  Conduit                Both Ends  Upstream  Dnstream   Normal Flow   Limited
  ----------------------------------------------------------------------------
  DUMMY0                      0.01      0.01   1473.00      0.01         0.01
  CULV-20                     0.01   1464.12      0.01   1464.41         0.01
  CULV-25                  1464.07   1464.30   1464.07   1464.44      1464.07
  CULV-30                  1464.12   1464.12   1464.45   1464.48         0.01
  CULV-35                  1464.23   1464.35   1464.23   1464.46      1464.23
  CULV-40A                 1464.48   1464.48   1464.56   1462.92         0.01
  CULV-40B                 1464.48   1464.48   1464.56   1463.28         0.01
  CULV-40C                 1464.48   1464.48   1464.56   1462.62         0.01
  CULV-45A                 1464.46   1464.46   1464.47   1463.54      1463.49
  CULV-45B                 1464.46   1464.46   1464.47      7.83        12.52
  CULV-50                  1464.46   1464.46   1464.46   1464.40      1464.38
  CULV-55A                 1464.40   1464.40   1464.46   1464.62         0.01
  CULV-55B                 1464.40   1464.40   1464.47   1464.61         0.01
  CHAN-60                  1461.30   1461.30   1462.26      0.01         0.01
  CULV-65A                 1464.72   1464.72   1464.72   1464.58         0.19
  CULV-65B                 1464.59   1464.60   1464.62   1464.57         0.16
  CHAN-70                  1463.99   1463.99   1464.14      0.01         0.01
  CULV-100A                1464.75   1464.75   1464.91      0.05         0.01
  CULV-100B                1464.80   1464.80   1464.91      0.24         0.01
  CHAN-700                 1464.07   1464.07   1464.20      0.01         0.01
  LKSerene_ovfl1           1464.74   1467.97   1464.74    693.09       722.73
  CULV-1350A               1022.63   1466.65   1028.97    803.27       359.82
  CULV-1350B               1022.63   1466.65   1028.97    803.27       359.82
  CHAN-900                 1463.44   1463.44   1464.69      0.01         0.01
  CULV-15                     0.01      0.01   1473.00      0.01         0.01
  CULV-300A                1463.97   1464.08   1465.63      9.69         9.50
  CULV-300B                1464.63   1464.65   1464.63      8.23        37.89
  CULV-300C                 937.69   1464.64    941.08      7.80       124.02
  Crowell_ovfl             1464.20   1464.20   1464.23      0.05         0.01
  LKSerene_ovfl2           1463.78   1463.78   1463.94      0.01         0.01
  

  Analysis begun on:  Wed Jan 02 09:04:30 2019
  Analysis ended on:  Wed Jan 02 09:17:16 2019
  Total elapsed time: 00:12:46