
  EPA STORM WATER MANAGEMENT MODEL - VERSION 5.1 (Build 5.1.013)
  --------------------------------------------------------------

  
  ERROR 205: invalid keyword GENERAL at line 252 of [CURVE] section:
  10YR_IDF	GENERAL	1.000000	370.020000

  
  ERROR 205: invalid keyword GENERAL at line 265 of [CURVE] section:
  2YR_IDF	GENERAL	1.000000	259.590000


  Analysis begun on:  Wed Jan 02 09:57:50 2019
  Analysis ended on:  Wed Jan 02 09:57:50 2019
  Total elapsed time: < 1 sec