
  EPA STORM WATER MANAGEMENT MODEL - VERSION 5.1 (Build 5.1.013)
  --------------------------------------------------------------

  
  *********************************************************
  NOTE: The summary statistics displayed in this report are
  based on results found at every computational time step,  
  not just on results from each reporting time step.
  *********************************************************
  
  ****************
  Analysis Options
  ****************
  Flow Units ............... GPM
  Process Models:
    Rainfall/Runoff ........ YES
    RDII ................... NO
    Snowmelt ............... NO
    Groundwater ............ NO
    Flow Routing ........... YES
    Ponding Allowed ........ NO
    Water Quality .......... NO
  Infiltration Method ...... CURVE_NUMBER
  Flow Routing Method ...... DYNWAVE
  Surcharge Method ......... EXTRAN
  Starting Date ............ 06/16/2010 00:00:00
  Ending Date .............. 06/17/2010 00:00:00
  Antecedent Dry Days ...... 0.0
  Report Time Step ......... 00:05:00
  Wet Time Step ............ 00:05:00
  Dry Time Step ............ 01:00:00
  Routing Time Step ........ 30.00 sec
  Variable Time Step ....... YES
  Maximum Trials ........... 8
  Number of Threads ........ 1
  Head Tolerance ........... 0.005000 ft
  
  
  **************************        Volume         Depth
  Runoff Quantity Continuity     acre-feet        inches
  **************************     ---------       -------
  Total Precipitation ......         0.277         2.340
  Evaporation Loss .........         0.000         0.000
  Infiltration Loss ........         0.000         0.000
  Surface Runoff ...........         0.276         2.331
  Final Storage ............         0.002         0.015
  Continuity Error (%) .....        -0.283
  
  
  **************************        Volume        Volume
  Flow Routing Continuity        acre-feet      10^6 gal
  **************************     ---------     ---------
  Dry Weather Inflow .......         0.494         0.161
  Wet Weather Inflow .......         0.276         0.090
  Groundwater Inflow .......         0.000         0.000
  RDII Inflow ..............         0.000         0.000
  External Inflow ..........         0.000         0.000
  External Outflow .........         0.650         0.212
  Flooding Loss ............         0.119         0.039
  Evaporation Loss .........         0.000         0.000
  Exfiltration Loss ........         0.000         0.000
  Initial Stored Volume ....         0.000         0.000
  Final Stored Volume ......         0.002         0.001
  Continuity Error (%) .....        -0.093
  
  
  ***************************
  Time-Step Critical Elements
  ***************************
  Link C04 (99.82%)
  
  
  ********************************
  Highest Flow Instability Indexes
  ********************************
  All links are stable.
  
  
  *************************
  Routing Time Step Summary
  *************************
  Minimum Time Step           :     1.08 sec
  Average Time Step           :     2.75 sec
  Maximum Time Step           :    30.00 sec
  Percent in Steady State     :     0.00
  Average Iterations per Step :     2.11
  Percent Not Converging      :     1.11
  
  
  ***************************
  Subcatchment Runoff Summary
  ***************************
  
  ------------------------------------------------------------------------------------------------------------------------------
                            Total      Total      Total      Total     Imperv       Perv      Total       Total     Peak  Runoff
                           Precip      Runon       Evap      Infil     Runoff     Runoff     Runoff      Runoff   Runoff   Coeff
  Subcatchment                 in         in         in         in         in         in         in    10^6 gal      GPM
  ------------------------------------------------------------------------------------------------------------------------------
  RDP6                       2.34       0.00       0.00       0.00       2.31       0.00       2.31        0.03  1850.61   0.987
  RDP5                       2.34       0.00       0.00       0.00       2.35       0.00       2.35        0.00    82.41   1.003
  RDP4                       2.34       0.00       0.00       0.00       2.35       0.00       2.35        0.02  1213.60   1.003
  RDP3C                      2.34       0.00       0.00       0.00       2.34       0.00       2.34        0.00   116.83   1.002
  RDP3B                      2.34       0.00       0.00       0.00       2.35       0.00       2.35        0.00    71.58   1.003
  RDP3A                      2.34       0.00       0.00       0.00       2.35       0.00       2.35        0.00   137.38   1.002
  RDP2A                      2.34       0.00       0.00       0.00       2.35       0.00       2.35        0.00   197.25   1.002
  RDP2                       2.34       0.00       0.00       0.00       2.35       0.00       2.35        0.02  1262.64   1.003
  RDP3                       2.34       0.00       0.00       0.00       2.31       0.00       2.31        0.01   319.68   0.986
  RDP1                       2.34       0.00       0.00       0.00       2.35       0.00       2.35        0.00    70.97   1.003
  
  
  ******************
  Node Depth Summary
  ******************
  
  ---------------------------------------------------------------------------------
                                 Average  Maximum  Maximum  Time of Max    Reported
                                   Depth    Depth      HGL   Occurrence   Max Depth
  Node                 Type         Feet     Feet     Feet  days hr:min        Feet
  ---------------------------------------------------------------------------------
  J04                  JUNCTION     0.16     0.83   606.27     0  18:26        0.83
  J05                  JUNCTION     0.29     3.57   610.92     0  18:15        1.97
  J06                  JUNCTION     0.33     4.51   612.90     0  18:15        3.06
  J07                  JUNCTION     0.30     4.76   615.00     0  18:15        3.21
  J08                  JUNCTION     0.30     5.74   617.30     0  18:15        3.33
  J09                  JUNCTION     0.31     4.54   620.12     0  18:15        3.64
  J010                 JUNCTION     0.31     3.84   621.90     0  18:15        3.84
  J011                 JUNCTION     0.29     4.18   623.70     0  18:13        3.71
  J012                 JUNCTION     0.31     3.96   627.17     0  18:15        3.78
  J013                 JUNCTION     0.27     3.66   629.54     0  18:12        3.04
  J014                 JUNCTION     0.28     3.05   630.40     0  18:11        3.05
  J015                 JUNCTION     0.32     6.94   638.32     0  18:12        4.39
  J016                 JUNCTION     0.26     3.36   638.24     0  18:13        3.36
  J03                  JUNCTION     0.24     1.37   606.06     0  18:20        1.34
  J02                  JUNCTION     0.21     0.83   604.40     0  18:26        0.83
  J017                 JUNCTION     0.35     6.75   644.33     0  18:17        6.70
  J018                 JUNCTION     0.30     6.81   648.61     0  18:17        6.76
  J019                 JUNCTION     0.27     6.18   650.33     0  18:17        6.12
  J020                 JUNCTION     0.26     5.67   653.18     0  18:17        5.55
  J021                 JUNCTION     0.28     5.81   654.54     0  18:16        5.81
  J022                 JUNCTION     0.21     4.90   658.94     0  18:16        4.65
  J023                 JUNCTION     0.22     4.78   662.13     0  18:17        4.78
  J024                 JUNCTION     0.12     0.90   665.64     0  18:22        0.81
  J025                 JUNCTION     0.14     0.85   666.54     0  18:21        0.78
  J026                 JUNCTION     0.15     2.28   668.99     0  18:20        1.20
  J027                 JUNCTION     0.14     2.79   671.41     0  18:20        1.03
  J028                 JUNCTION     0.14     3.44   673.46     0  18:20        1.02
  J01                  OUTFALL      0.21     0.85   603.15     0  18:26        0.85
  
  
  *******************
  Node Inflow Summary
  *******************
  
  -------------------------------------------------------------------------------------------------
                                  Maximum  Maximum                  Lateral       Total        Flow
                                  Lateral    Total  Time of Max      Inflow      Inflow     Balance
                                   Inflow   Inflow   Occurrence      Volume      Volume       Error
  Node                 Type           GPM      GPM  days hr:min    10^6 gal    10^6 gal     Percent
  -------------------------------------------------------------------------------------------------
  J04                  JUNCTION      0.00  1791.76     0  18:26           0       0.212       0.006
  J05                  JUNCTION      0.00  1791.86     0  18:20           0       0.212       0.003
  J06                  JUNCTION      0.00  1791.77     0  18:20           0       0.212       0.017
  J07                  JUNCTION      0.92  1798.75     0  18:14    0.000499       0.212       0.004
  J08                  JUNCTION      0.00  1952.90     0  18:14           0       0.211      -0.014
  J09                  JUNCTION      2.72  2029.85     0  18:13     0.00148       0.211       0.023
  J010                 JUNCTION      0.00  2017.62     0  18:13           0        0.21       0.021
  J011                 JUNCTION     73.95  2130.11     0  18:13     0.00477        0.21      -0.015
  J012                 JUNCTION      2.10  2161.18     0  18:12     0.00114       0.205       0.038
  J013                 JUNCTION      0.00  2241.08     0  18:12           0       0.204      -0.003
  J014                 JUNCTION   1271.80  3107.48     0  18:20      0.0324       0.221       0.013
  J015                 JUNCTION      0.00  1859.76     0  18:12           0       0.189       0.019
  J016                 JUNCTION    344.79  2731.56     0  18:20      0.0354         0.2      -0.029
  J03                  JUNCTION      0.00  1792.84     0  18:27           0       0.212       0.006
  J02                  JUNCTION      0.00  1791.75     0  18:26           0       0.212       0.009
  J017                 JUNCTION      0.00  2386.88     0  18:20           0       0.165       0.055
  J018                 JUNCTION    198.80  2386.95     0  18:20     0.00521       0.165       0.003
  J019                 JUNCTION    143.33  2229.78     0  18:27     0.00947        0.16       0.000
  J020                 JUNCTION      0.00  2161.31     0  18:27           0        0.15       0.005
  J021                 JUNCTION     73.84  2480.18     0  18:20     0.00393       0.155       0.015
  J022                 JUNCTION      0.00  2406.34     0  18:20           0       0.151      -0.003
  J023                 JUNCTION   1236.21  3222.31     0  18:21      0.0477       0.156       0.008
  J024                 JUNCTION    120.51  2071.88     0  18:21     0.00641       0.109       0.010
  J025                 JUNCTION      0.00  1993.14     0  18:20           0       0.102       0.006
  J026                 JUNCTION      0.00  1987.77     0  18:20           0       0.102      -0.000
  J027                 JUNCTION      0.00  1977.06     0  18:20           0       0.102      -0.007
  J028                 JUNCTION   1991.33  1991.33     0  18:20       0.102       0.102       0.010
  J01                  OUTFALL       0.00  1791.75     0  18:26           0       0.212       0.000
  
  
  **********************
  Node Surcharge Summary
  **********************
  
  Surcharging occurs when water rises above the top of the highest conduit.
  ---------------------------------------------------------------------
                                               Max. Height   Min. Depth
                                   Hours       Above Crown    Below Rim
  Node                 Type      Surcharged           Feet         Feet
  ---------------------------------------------------------------------
  J05                  JUNCTION        0.42          2.574        0.476
  J06                  JUNCTION        0.45          3.510        0.000
  J07                  JUNCTION        0.42          3.760        0.000
  J08                  JUNCTION        0.40          4.740        0.000
  J09                  JUNCTION        0.39          3.535        1.085
  J010                 JUNCTION        0.40          2.840        0.000
  J011                 JUNCTION        0.38          3.180        0.000
  J012                 JUNCTION        0.39          2.963        1.197
  J013                 JUNCTION        0.37          2.661        2.959
  J014                 JUNCTION        0.37          2.050        0.000
  J015                 JUNCTION        0.34          5.940        2.320
  J016                 JUNCTION        0.32          2.360        0.000
  J03                  JUNCTION        0.38          0.370        5.040
  J017                 JUNCTION        0.32          5.750        0.000
  J018                 JUNCTION        0.29          5.809        0.741
  J019                 JUNCTION        0.27          5.180        3.110
  J020                 JUNCTION        0.24          4.673        2.697
  J021                 JUNCTION        0.24          4.810        0.000
  J022                 JUNCTION        0.21          3.898        0.902
  J023                 JUNCTION        0.18          3.780        0.000
  J026                 JUNCTION        0.11          1.276        6.524
  J027                 JUNCTION        0.08          1.787        6.073
  J028                 JUNCTION        0.08          2.445        4.405
  
  
  *********************
  Node Flooding Summary
  *********************
  
  Flooding refers to all water that overflows a node, whether it ponds or not.
  --------------------------------------------------------------------------
                                                             Total   Maximum
                                 Maximum   Time of Max       Flood    Ponded
                        Hours       Rate    Occurrence      Volume     Depth
  Node                 Flooded       GPM   days hr:min    10^6 gal      Feet
  --------------------------------------------------------------------------
  J06                     0.01    110.52      0  18:15       0.000     0.000
  J07                     0.01     67.12      0  18:15       0.000     0.000
  J08                     0.01    211.46      0  18:15       0.000     0.000
  J010                    0.18    119.04      0  18:15       0.000     0.000
  J011                    0.01    164.44      0  18:13       0.000     0.000
  J014                    0.32   1374.31      0  18:20       0.017     0.000
  J016                    0.29    895.86      0  18:20       0.011     0.000
  J017                    0.01      2.61      0  18:17       0.000     0.000
  J021                    0.18    435.74      0  18:20       0.004     0.000
  J023                    0.17    815.96      0  18:21       0.006     0.000
  
  
  ***********************
  Outfall Loading Summary
  ***********************
  
  -----------------------------------------------------------
                         Flow       Avg       Max       Total
                         Freq      Flow      Flow      Volume
  Outfall Node           Pcnt       GPM       GPM    10^6 gal
  -----------------------------------------------------------
  J01                   99.61    213.87   1791.75       0.212
  -----------------------------------------------------------
  System                99.61    213.87   1791.75       0.212
  
  
  ********************
  Link Flow Summary
  ********************
  
  -----------------------------------------------------------------------------
                                 Maximum  Time of Max   Maximum    Max/    Max/
                                  |Flow|   Occurrence   |Veloc|    Full    Full
  Link                 Type          GPM  days hr:min    ft/sec    Flow   Depth
  -----------------------------------------------------------------------------
  C016                 CONDUIT   1859.76     0  18:12      6.29    0.84    1.00
  C015                 CONDUIT   1835.83     0  18:15      5.21    1.15    1.00
  C014                 CONDUIT   2241.08     0  18:12      6.52    1.26    1.00
  C013                 CONDUIT   2160.23     0  18:12      6.29    1.06    1.00
  C012                 CONDUIT   2085.62     0  18:13      6.00    1.21    1.00
  C011                 CONDUIT   2017.62     0  18:13      5.87    1.03    1.00
  C010                 CONDUIT   2028.61     0  18:13      5.94    1.16    1.00
  C09                  CONDUIT   1952.90     0  18:14      5.69    1.13    1.00
  C08                  CONDUIT   1798.33     0  18:14      5.65    1.05    1.00
  C07                  CONDUIT   1791.77     0  18:20      5.08    1.02    1.00
  C06                  CONDUIT   1791.86     0  18:20      5.08    1.40    1.00
  C05                  CONDUIT   1791.76     0  18:26      6.01    1.26    0.92
  C04                  CONDUIT   1792.84     0  18:27      6.08    0.54    0.92
  C03                  CONDUIT   1791.75     0  18:26      5.31    1.21    0.91
  C02                  CONDUIT   1791.75     0  18:26      5.76    1.01    0.84
  C028                 CONDUIT   1977.06     0  18:20      5.97    1.09    1.00
  C027                 CONDUIT   1987.77     0  18:20      5.65    1.06    1.00
  C026                 CONDUIT   1993.14     0  18:20      5.95    1.26    0.92
  C025                 CONDUIT   1954.01     0  18:21      6.64    1.02    0.87
  C024                 CONDUIT   2030.09     0  18:22      5.88    0.75    0.95
  C023                 CONDUIT   2406.34     0  18:20      7.92    1.02    1.00
  C022                 CONDUIT   2406.34     0  18:20      6.89    0.88    1.00
  C021                 CONDUIT   2161.31     0  18:27      6.52    1.16    1.00
  C020                 CONDUIT   2161.77     0  18:27      7.34    0.96    1.00
  C019                 CONDUIT   2229.61     0  18:27      7.51    0.87    1.00
  C018                 CONDUIT   2386.88     0  18:20      6.77    1.01    1.00
  C017                 CONDUIT   2386.99     0  18:20      6.77    1.50    1.00
  
  
  ***************************
  Flow Classification Summary
  ***************************
  
  -------------------------------------------------------------------------------------
                      Adjusted    ---------- Fraction of Time in Flow Class ---------- 
                       /Actual         Up    Down  Sub   Sup   Up    Down  Norm  Inlet 
  Conduit               Length    Dry  Dry   Dry   Crit  Crit  Crit  Crit  Ltd   Ctrl  
  -------------------------------------------------------------------------------------
  C016                    1.00   0.00  0.00  0.00  0.04  0.96  0.00  0.00  0.98  0.00
  C015                    1.00   0.00  0.00  0.00  0.04  0.96  0.00  0.00  0.43  0.00
  C014                    1.00   0.00  0.00  0.00  0.04  0.96  0.00  0.00  0.00  0.00
  C013                    1.00   0.00  0.00  0.00  0.04  0.96  0.00  0.00  0.97  0.00
  C012                    1.00   0.00  0.00  0.00  0.04  0.96  0.00  0.00  0.01  0.00
  C011                    1.00   0.00  0.00  0.00  0.04  0.96  0.00  0.00  0.95  0.00
  C010                    1.00   0.00  0.00  0.00  0.04  0.96  0.00  0.00  0.29  0.00
  C09                     1.00   0.00  0.00  0.00  0.04  0.96  0.00  0.00  0.85  0.00
  C08                     1.00   0.00  0.00  0.00  0.05  0.95  0.00  0.00  0.07  0.00
  C07                     1.00   0.00  0.00  0.00  0.05  0.95  0.00  0.00  0.96  0.00
  C06                     1.00   0.00  0.00  0.00  0.15  0.85  0.00  0.00  0.20  0.00
  C05                     1.00   0.00  0.00  0.00  0.04  0.96  0.00  0.00  0.00  0.00
  C04                     1.00   0.00  0.00  0.00  0.04  0.96  0.00  0.00  0.96  0.00
  C03                     1.00   0.00  0.00  0.00  0.04  0.95  0.00  0.00  0.00  0.00
  C02                     1.00   0.00  0.00  0.00  0.00  1.00  0.00  0.00  0.18  0.00
  C028                    1.00   0.00  0.00  0.00  0.01  0.99  0.00  0.00  0.03  0.00
  C027                    1.00   0.00  0.00  0.00  0.01  0.99  0.00  0.00  0.98  0.00
  C026                    1.00   0.00  0.00  0.00  0.01  0.99  0.00  0.00  0.01  0.00
  C025                    1.00   0.00  0.00  0.00  0.00  1.00  0.00  0.00  0.01  0.00
  C024                    1.00   0.00  0.00  0.00  0.02  0.98  0.00  0.00  0.99  0.00
  C023                    1.00   0.00  0.00  0.00  0.02  0.98  0.00  0.00  0.01  0.00
  C022                    1.00   0.00  0.00  0.00  0.02  0.98  0.00  0.00  0.99  0.00
  C021                    1.00   0.00  0.00  0.00  0.03  0.97  0.00  0.00  0.01  0.00
  C020                    1.00   0.00  0.00  0.00  0.03  0.97  0.00  0.00  0.02  0.00
  C019                    1.00   0.00  0.00  0.00  0.03  0.97  0.00  0.00  0.98  0.00
  C018                    1.00   0.00  0.00  0.00  0.03  0.97  0.00  0.00  0.98  0.00
  C017                    1.00   0.00  0.00  0.00  0.04  0.96  0.00  0.00  0.02  0.00
  
  
  *************************
  Conduit Surcharge Summary
  *************************
  
  ----------------------------------------------------------------------------
                                                           Hours        Hours 
                         --------- Hours Full --------   Above Full   Capacity
  Conduit                Both Ends  Upstream  Dnstream   Normal Flow   Limited
  ----------------------------------------------------------------------------
  C016                        0.32      0.32      0.34      0.01         0.01
  C015                        0.34      0.34      0.37      0.34         0.33
  C014                        0.36      0.37      0.37      0.07         0.33
  C013                        0.37      0.37      0.39      0.02         0.01
  C012                        0.37      0.39      0.38      0.35         0.32
  C011                        0.38      0.38      0.40      0.02         0.02
  C010                        0.38      0.40      0.39      0.32         0.31
  C09                         0.38      0.39      0.40      0.33         0.30
  C08                         0.40      0.40      0.42      0.31         0.30
  C07                         0.42      0.42      0.45      0.28         0.30
  C06                         0.42      0.45      0.42      0.46         0.42
  C05                         0.01      0.42      0.01      0.45         0.01
  C04                         0.01      0.01      0.38      0.01         0.01
  C03                         0.01      0.38      0.01      0.42         0.01
  C02                         0.01      0.01      0.01      0.19         0.01
  C028                        0.08      0.08      0.08      0.11         0.07
  C027                        0.08      0.08      0.11      0.04         0.04
  C026                        0.01      0.11      0.01      0.15         0.01
  C025                        0.01      0.01      0.01      0.02         0.01
  C024                        0.01      0.01      0.18      0.01         0.01
  C023                        0.18      0.18      0.21      0.17         0.17
  C022                        0.21      0.21      0.24      0.01         0.01
  C021                        0.24      0.24      0.24      0.27         0.23
  C020                        0.24      0.24      0.27      0.01         0.01
  C019                        0.27      0.27      0.29      0.01         0.01
  C018                        0.29      0.29      0.32      0.11         0.11
  C017                        0.31      0.32      0.32      0.34         0.31
  

  Analysis begun on:  Wed Jan 02 10:01:56 2019
  Analysis ended on:  Wed Jan 02 10:01:58 2019
  Total elapsed time: 00:00:02