
  EPA STORM WATER MANAGEMENT MODEL - VERSION 5.1 (Build 5.1.013)
  --------------------------------------------------------------

  WARNING 03: negative offset ignored for Link 10000.1
  WARNING 08: elevation drop exceeds length for Conduit 10000.1
  WARNING 04: minimum elevation drop used for Conduit 10001.1
  WARNING 04: minimum elevation drop used for Conduit 1124.1
  WARNING 04: minimum elevation drop used for Conduit 12198.1
  WARNING 04: minimum elevation drop used for Conduit 12199.1
  WARNING 04: minimum elevation drop used for Conduit 12200.1
  WARNING 04: minimum elevation drop used for Conduit 12201.1
  WARNING 04: minimum elevation drop used for Conduit 12202.1
  WARNING 04: minimum elevation drop used for Conduit 12203.1
  WARNING 04: minimum elevation drop used for Conduit 12204.1
  WARNING 04: minimum elevation drop used for Conduit 12205.1
  WARNING 04: minimum elevation drop used for Conduit 12206.1
  WARNING 04: minimum elevation drop used for Conduit 12207.1
  WARNING 04: minimum elevation drop used for Conduit 12208.1
  WARNING 04: minimum elevation drop used for Conduit 12209.1
  WARNING 04: minimum elevation drop used for Conduit 12210.1
  WARNING 04: minimum elevation drop used for Conduit 12211.1
  WARNING 04: minimum elevation drop used for Conduit 12212.1
  WARNING 04: minimum elevation drop used for Conduit 12213.1
  WARNING 04: minimum elevation drop used for Conduit 12214.1
  WARNING 04: minimum elevation drop used for Conduit 12215.1
  WARNING 04: minimum elevation drop used for Conduit 12216.1
  WARNING 04: minimum elevation drop used for Conduit 12217.1
  WARNING 04: minimum elevation drop used for Conduit 12218.1
  WARNING 04: minimum elevation drop used for Conduit 12219.1
  WARNING 04: minimum elevation drop used for Conduit 12220.1
  WARNING 04: minimum elevation drop used for Conduit 12221.1
  WARNING 04: minimum elevation drop used for Conduit 12222.1
  WARNING 04: minimum elevation drop used for Conduit 12223.1
  WARNING 04: minimum elevation drop used for Conduit 12224.1
  WARNING 04: minimum elevation drop used for Conduit 12225.1
  WARNING 04: minimum elevation drop used for Conduit 12225.2
  WARNING 04: minimum elevation drop used for Conduit 12226.1
  WARNING 04: minimum elevation drop used for Conduit 12227.1
  WARNING 04: minimum elevation drop used for Conduit 12228.1
  WARNING 04: minimum elevation drop used for Conduit 12229.1
  WARNING 04: minimum elevation drop used for Conduit 12230.1
  WARNING 04: minimum elevation drop used for Conduit 12231.1
  WARNING 04: minimum elevation drop used for Conduit 12232.1
  WARNING 04: minimum elevation drop used for Conduit 12233.1
  WARNING 04: minimum elevation drop used for Conduit 12234.1
  WARNING 04: minimum elevation drop used for Conduit 12235.1
  WARNING 04: minimum elevation drop used for Conduit 12236.1
  WARNING 04: minimum elevation drop used for Conduit 12237.1
  WARNING 04: minimum elevation drop used for Conduit 12238.1
  WARNING 04: minimum elevation drop used for Conduit 12239.1
  WARNING 04: minimum elevation drop used for Conduit 12240.1
  WARNING 04: minimum elevation drop used for Conduit 12241.1
  WARNING 04: minimum elevation drop used for Conduit 12242.1
  WARNING 04: minimum elevation drop used for Conduit 12243.1
  WARNING 04: minimum elevation drop used for Conduit 12244.1
  WARNING 04: minimum elevation drop used for Conduit 12245.1
  WARNING 04: minimum elevation drop used for Conduit 12246.1
  WARNING 04: minimum elevation drop used for Conduit 12247.1
  WARNING 04: minimum elevation drop used for Conduit 12248.1
  WARNING 04: minimum elevation drop used for Conduit 12249.1
  WARNING 04: minimum elevation drop used for Conduit 12250.1
  WARNING 04: minimum elevation drop used for Conduit 12251.1
  WARNING 04: minimum elevation drop used for Conduit 12252.1
  WARNING 04: minimum elevation drop used for Conduit 12253.1
  WARNING 04: minimum elevation drop used for Conduit 12254.1
  WARNING 04: minimum elevation drop used for Conduit 12255.1
  WARNING 04: minimum elevation drop used for Conduit 12256.1
  WARNING 04: minimum elevation drop used for Conduit 12257.1
  WARNING 04: minimum elevation drop used for Conduit 12258.1
  WARNING 04: minimum elevation drop used for Conduit 12259.1
  WARNING 04: minimum elevation drop used for Conduit 12260.1
  WARNING 04: minimum elevation drop used for Conduit 12261.1
  WARNING 04: minimum elevation drop used for Conduit 12262.1
  WARNING 04: minimum elevation drop used for Conduit 12263.1
  WARNING 04: minimum elevation drop used for Conduit 12264.1
  WARNING 04: minimum elevation drop used for Conduit 12265.1
  WARNING 04: minimum elevation drop used for Conduit 12266.1
  WARNING 04: minimum elevation drop used for Conduit 12267.1
  WARNING 04: minimum elevation drop used for Conduit 12268.1
  WARNING 04: minimum elevation drop used for Conduit 12269.1
  WARNING 04: minimum elevation drop used for Conduit 12270.1
  WARNING 04: minimum elevation drop used for Conduit 12271.1
  WARNING 04: minimum elevation drop used for Conduit 12272.1
  WARNING 04: minimum elevation drop used for Conduit 12273.1
  WARNING 04: minimum elevation drop used for Conduit 12274.1
  WARNING 04: minimum elevation drop used for Conduit 12275.1
  WARNING 04: minimum elevation drop used for Conduit 12276.1
  WARNING 04: minimum elevation drop used for Conduit 12276.2
  WARNING 04: minimum elevation drop used for Conduit 12277.1
  WARNING 04: minimum elevation drop used for Conduit 12278.1
  WARNING 04: minimum elevation drop used for Conduit 12279.1
  WARNING 04: minimum elevation drop used for Conduit 12280.1
  WARNING 04: minimum elevation drop used for Conduit 12281.1
  WARNING 04: minimum elevation drop used for Conduit 12282.1
  WARNING 04: minimum elevation drop used for Conduit 12283.1
  WARNING 04: minimum elevation drop used for Conduit 12284.1
  WARNING 04: minimum elevation drop used for Conduit 12285.1
  WARNING 04: minimum elevation drop used for Conduit 12286.1
  WARNING 04: minimum elevation drop used for Conduit 12287.1
  WARNING 04: minimum elevation drop used for Conduit 12288.1
  WARNING 04: minimum elevation drop used for Conduit 12289.1
  WARNING 04: minimum elevation drop used for Conduit 12290.1
  WARNING 04: minimum elevation drop used for Conduit 12291.1
  WARNING 04: minimum elevation drop used for Conduit 12292.1
  WARNING 04: minimum elevation drop used for Conduit 12293.1
  WARNING 04: minimum elevation drop used for Conduit 12294.1
  WARNING 04: minimum elevation drop used for Conduit 12295.1
  WARNING 04: minimum elevation drop used for Conduit 12296.1
  WARNING 04: minimum elevation drop used for Conduit 12297.1
  WARNING 04: minimum elevation drop used for Conduit 12298.1
  WARNING 04: minimum elevation drop used for Conduit 12299.2
  WARNING 04: minimum elevation drop used for Conduit 12300.1
  WARNING 04: minimum elevation drop used for Conduit 12301.1
  WARNING 04: minimum elevation drop used for Conduit 12302.1
  WARNING 04: minimum elevation drop used for Conduit 12303.1
  WARNING 04: minimum elevation drop used for Conduit 12304.2
  WARNING 04: minimum elevation drop used for Conduit 12305.1
  WARNING 04: minimum elevation drop used for Conduit 12306.1
  WARNING 04: minimum elevation drop used for Conduit 12307.1
  WARNING 04: minimum elevation drop used for Conduit 12308.1
  WARNING 04: minimum elevation drop used for Conduit 12309.1
  WARNING 04: minimum elevation drop used for Conduit 12310.1
  WARNING 04: minimum elevation drop used for Conduit 12311.1
  WARNING 04: minimum elevation drop used for Conduit 12312.1
  WARNING 04: minimum elevation drop used for Conduit 12313.1
  WARNING 04: minimum elevation drop used for Conduit 12314.1
  WARNING 04: minimum elevation drop used for Conduit 12315.1
  WARNING 04: minimum elevation drop used for Conduit 12316.1
  WARNING 04: minimum elevation drop used for Conduit 12317.1
  WARNING 04: minimum elevation drop used for Conduit 12318.1
  WARNING 04: minimum elevation drop used for Conduit 12319.1
  WARNING 04: minimum elevation drop used for Conduit 12320.1
  WARNING 04: minimum elevation drop used for Conduit 12321.1
  WARNING 04: minimum elevation drop used for Conduit 12322.1
  WARNING 04: minimum elevation drop used for Conduit 12323.1
  WARNING 04: minimum elevation drop used for Conduit 12324.1
  WARNING 04: minimum elevation drop used for Conduit 12325.1
  WARNING 04: minimum elevation drop used for Conduit 12326.1
  WARNING 04: minimum elevation drop used for Conduit 12327.1
  WARNING 04: minimum elevation drop used for Conduit 12327.2
  WARNING 04: minimum elevation drop used for Conduit 12328.1
  WARNING 04: minimum elevation drop used for Conduit 12329.1
  WARNING 04: minimum elevation drop used for Conduit 12330.1
  WARNING 04: minimum elevation drop used for Conduit 12331.1
  WARNING 04: minimum elevation drop used for Conduit 12332.1
  WARNING 04: minimum elevation drop used for Conduit 12333.1
  WARNING 04: minimum elevation drop used for Conduit 12334.1
  WARNING 04: minimum elevation drop used for Conduit 12335.1
  WARNING 04: minimum elevation drop used for Conduit 12336.1
  WARNING 04: minimum elevation drop used for Conduit 12337.1
  WARNING 04: minimum elevation drop used for Conduit 12338.1
  WARNING 04: minimum elevation drop used for Conduit 12339.1
  WARNING 04: minimum elevation drop used for Conduit 12340.1
  WARNING 04: minimum elevation drop used for Conduit 12341.1
  WARNING 04: minimum elevation drop used for Conduit 12342.1
  WARNING 04: minimum elevation drop used for Conduit 12343.1
  WARNING 04: minimum elevation drop used for Conduit 12344.1
  WARNING 04: minimum elevation drop used for Conduit 12345.1
  WARNING 04: minimum elevation drop used for Conduit 12346.1
  WARNING 04: minimum elevation drop used for Conduit 12348.1
  WARNING 04: minimum elevation drop used for Conduit 12349.1
  WARNING 03: negative offset ignored for Link 12350.1
  WARNING 08: elevation drop exceeds length for Conduit 12350.1
  WARNING 04: minimum elevation drop used for Conduit 12351.1
  WARNING 03: negative offset ignored for Link 13107.1
  WARNING 03: negative offset ignored for Link 13107.1
  WARNING 03: negative offset ignored for Link 13110.1
  WARNING 03: negative offset ignored for Link 13110.1
  WARNING 03: negative offset ignored for Link 13111.1
  WARNING 03: negative offset ignored for Link 13111.1
  WARNING 03: negative offset ignored for Link 13112.1
  WARNING 03: negative offset ignored for Link 13112.1
  WARNING 03: negative offset ignored for Link 13113.1
  WARNING 03: negative offset ignored for Link 13113.1
  WARNING 03: negative offset ignored for Link 13114.1
  WARNING 03: negative offset ignored for Link 13114.1
  WARNING 03: negative offset ignored for Link 13115.1
  WARNING 03: negative offset ignored for Link 13115.1
  WARNING 03: negative offset ignored for Link 13117.1
  WARNING 03: negative offset ignored for Link 13117.1
  WARNING 03: negative offset ignored for Link 13118.1
  WARNING 03: negative offset ignored for Link 13118.1
  WARNING 03: negative offset ignored for Link 13119.1
  WARNING 03: negative offset ignored for Link 13119.1
  WARNING 03: negative offset ignored for Link 13120.1
  WARNING 03: negative offset ignored for Link 13120.1
  WARNING 03: negative offset ignored for Link 13122.1
  WARNING 03: negative offset ignored for Link 13122.1
  WARNING 03: negative offset ignored for Link 13123.1
  WARNING 03: negative offset ignored for Link 13123.1
  WARNING 03: negative offset ignored for Link 13129.1
  WARNING 03: negative offset ignored for Link 13129.1
  WARNING 03: negative offset ignored for Link 13130.1
  WARNING 03: negative offset ignored for Link 13130.1
  WARNING 03: negative offset ignored for Link 13131.1
  WARNING 03: negative offset ignored for Link 13131.1
  WARNING 03: negative offset ignored for Link 13132.1
  WARNING 03: negative offset ignored for Link 13132.1
  WARNING 03: negative offset ignored for Link 13133.1
  WARNING 03: negative offset ignored for Link 13133.1
  WARNING 03: negative offset ignored for Link 13134.1
  WARNING 03: negative offset ignored for Link 13134.1
  WARNING 03: negative offset ignored for Link 13135.1
  WARNING 03: negative offset ignored for Link 13135.1
  WARNING 03: negative offset ignored for Link 13136.1
  WARNING 03: negative offset ignored for Link 13136.1
  WARNING 03: negative offset ignored for Link 13137.1
  WARNING 03: negative offset ignored for Link 13137.1
  WARNING 03: negative offset ignored for Link 13138.1
  WARNING 03: negative offset ignored for Link 13138.1
  WARNING 03: negative offset ignored for Link 13139.1
  WARNING 03: negative offset ignored for Link 13139.1
  WARNING 03: negative offset ignored for Link 13140.1
  WARNING 08: elevation drop exceeds length for Conduit 13140.1
  WARNING 03: negative offset ignored for Link 13141.1
  WARNING 03: negative offset ignored for Link 13141.1
  WARNING 03: negative offset ignored for Link 13142.1
  WARNING 03: negative offset ignored for Link 13142.1
  WARNING 03: negative offset ignored for Link 13143.1
  WARNING 03: negative offset ignored for Link 13143.1
  WARNING 03: negative offset ignored for Link 13144.1
  WARNING 08: elevation drop exceeds length for Conduit 13144.1
  WARNING 03: negative offset ignored for Link 13149.1
  WARNING 03: negative offset ignored for Link 13149.1
  WARNING 03: negative offset ignored for Link 13150.1
  WARNING 03: negative offset ignored for Link 13150.1
  WARNING 03: negative offset ignored for Link 13151.1
  WARNING 03: negative offset ignored for Link 13151.1
  WARNING 03: negative offset ignored for Link 13152.1
  WARNING 03: negative offset ignored for Link 13152.1
  WARNING 03: negative offset ignored for Link 13153.1
  WARNING 03: negative offset ignored for Link 13153.1
  WARNING 03: negative offset ignored for Link 13154.1
  WARNING 03: negative offset ignored for Link 13154.1
  WARNING 03: negative offset ignored for Link 13155.1
  WARNING 03: negative offset ignored for Link 13155.1
  WARNING 03: negative offset ignored for Link 13156.1
  WARNING 03: negative offset ignored for Link 13156.1
  WARNING 03: negative offset ignored for Link 13157.1
  WARNING 03: negative offset ignored for Link 13157.1
  WARNING 03: negative offset ignored for Link 13158.1
  WARNING 03: negative offset ignored for Link 13158.1
  WARNING 03: negative offset ignored for Link 13159.1
  WARNING 03: negative offset ignored for Link 13159.1
  WARNING 03: negative offset ignored for Link 13160.1
  WARNING 03: negative offset ignored for Link 13160.1
  WARNING 03: negative offset ignored for Link 13161.1
  WARNING 03: negative offset ignored for Link 13161.1
  WARNING 03: negative offset ignored for Link 13162.1
  WARNING 03: negative offset ignored for Link 13162.1
  WARNING 03: negative offset ignored for Link 13189.1
  WARNING 03: negative offset ignored for Link 13189.1
  WARNING 03: negative offset ignored for Link 13190.1
  WARNING 03: negative offset ignored for Link 13190.1
  WARNING 03: negative offset ignored for Link 13191.1
  WARNING 03: negative offset ignored for Link 13191.1
  WARNING 03: negative offset ignored for Link 13192.1
  WARNING 03: negative offset ignored for Link 13192.1
  WARNING 03: negative offset ignored for Link 13193.1
  WARNING 03: negative offset ignored for Link 13193.1
  WARNING 03: negative offset ignored for Link 13194.1
  WARNING 03: negative offset ignored for Link 13194.1
  WARNING 03: negative offset ignored for Link 13194.2
  WARNING 03: negative offset ignored for Link 13194.2
  WARNING 03: negative offset ignored for Link 13195.1
  WARNING 03: negative offset ignored for Link 13195.1
  WARNING 03: negative offset ignored for Link 13196.1
  WARNING 03: negative offset ignored for Link 13196.1
  WARNING 03: negative offset ignored for Link 13197.1
  WARNING 03: negative offset ignored for Link 13197.1
  WARNING 03: negative offset ignored for Link 13197.2
  WARNING 03: negative offset ignored for Link 13197.2
  WARNING 03: negative offset ignored for Link 13198.1
  WARNING 03: negative offset ignored for Link 13198.1
  WARNING 03: negative offset ignored for Link 13199.1
  WARNING 03: negative offset ignored for Link 13199.1
  WARNING 03: negative offset ignored for Link 13200.1
  WARNING 03: negative offset ignored for Link 13200.1
  WARNING 03: negative offset ignored for Link 13201.1
  WARNING 03: negative offset ignored for Link 13201.1
  WARNING 03: negative offset ignored for Link 13202.1
  WARNING 03: negative offset ignored for Link 13202.1
  WARNING 03: negative offset ignored for Link 13203.1
  WARNING 03: negative offset ignored for Link 13203.1
  WARNING 03: negative offset ignored for Link 13205.1
  WARNING 03: negative offset ignored for Link 13205.1
  WARNING 03: negative offset ignored for Link 13206.1
  WARNING 03: negative offset ignored for Link 13206.1
  WARNING 03: negative offset ignored for Link 13207.1
  WARNING 03: negative offset ignored for Link 13207.1
  WARNING 03: negative offset ignored for Link 13208.1
  WARNING 03: negative offset ignored for Link 13208.1
  WARNING 03: negative offset ignored for Link 13209.1
  WARNING 03: negative offset ignored for Link 13209.1
  WARNING 03: negative offset ignored for Link 13209.2
  WARNING 03: negative offset ignored for Link 13209.2
  WARNING 03: negative offset ignored for Link 13210.1
  WARNING 03: negative offset ignored for Link 13210.1
  WARNING 03: negative offset ignored for Link 13211.1
  WARNING 03: negative offset ignored for Link 13211.1
  WARNING 03: negative offset ignored for Link 13212.1
  WARNING 03: negative offset ignored for Link 13212.1
  WARNING 03: negative offset ignored for Link 13213.1
  WARNING 03: negative offset ignored for Link 13213.1
  WARNING 03: negative offset ignored for Link 13214.1
  WARNING 03: negative offset ignored for Link 13214.1
  WARNING 03: negative offset ignored for Link 13215.1
  WARNING 03: negative offset ignored for Link 13215.1
  WARNING 03: negative offset ignored for Link 13216.1
  WARNING 03: negative offset ignored for Link 13216.1
  WARNING 03: negative offset ignored for Link 13217.1
  WARNING 03: negative offset ignored for Link 13217.1
  WARNING 03: negative offset ignored for Link 13218.1
  WARNING 03: negative offset ignored for Link 13218.1
  WARNING 03: negative offset ignored for Link 13219.1
  WARNING 03: negative offset ignored for Link 13219.1
  WARNING 03: negative offset ignored for Link 13220.1
  WARNING 03: negative offset ignored for Link 13220.1
  WARNING 03: negative offset ignored for Link 13221.1
  WARNING 03: negative offset ignored for Link 13221.1
  WARNING 03: negative offset ignored for Link 13223.1
  WARNING 03: negative offset ignored for Link 13223.1
  WARNING 03: negative offset ignored for Link 13224.1
  WARNING 03: negative offset ignored for Link 13224.1
  WARNING 03: negative offset ignored for Link 13225.1
  WARNING 03: negative offset ignored for Link 13225.1
  WARNING 03: negative offset ignored for Link 13227.1
  WARNING 03: negative offset ignored for Link 13227.1
  WARNING 03: negative offset ignored for Link 13228.1
  WARNING 03: negative offset ignored for Link 13228.1
  WARNING 03: negative offset ignored for Link 13229.1
  WARNING 03: negative offset ignored for Link 13229.1
  WARNING 03: negative offset ignored for Link 13246.1
  WARNING 03: negative offset ignored for Link 13246.1
  WARNING 03: negative offset ignored for Link 13247.1
  WARNING 03: negative offset ignored for Link 13247.1
  WARNING 03: negative offset ignored for Link 13248.1
  WARNING 03: negative offset ignored for Link 13248.1
  WARNING 03: negative offset ignored for Link 13249.1
  WARNING 03: negative offset ignored for Link 13249.1
  WARNING 03: negative offset ignored for Link 13250.1
  WARNING 03: negative offset ignored for Link 13250.1
  WARNING 03: negative offset ignored for Link 13281.1
  WARNING 03: negative offset ignored for Link 13281.1
  WARNING 03: negative offset ignored for Link 13282.1
  WARNING 03: negative offset ignored for Link 13282.1
  WARNING 03: negative offset ignored for Link 13283.1
  WARNING 03: negative offset ignored for Link 13283.1
  WARNING 03: negative offset ignored for Link 13284.1
  WARNING 03: negative offset ignored for Link 13284.1
  WARNING 03: negative offset ignored for Link 13285.1
  WARNING 03: negative offset ignored for Link 13285.1
  WARNING 03: negative offset ignored for Link 13286.1
  WARNING 03: negative offset ignored for Link 13286.1
  WARNING 03: negative offset ignored for Link 13287.1
  WARNING 03: negative offset ignored for Link 13287.1
  WARNING 03: negative offset ignored for Link 13288.1
  WARNING 03: negative offset ignored for Link 13288.1
  WARNING 03: negative offset ignored for Link 13289.1
  WARNING 03: negative offset ignored for Link 13289.1
  WARNING 03: negative offset ignored for Link 13290.1
  WARNING 03: negative offset ignored for Link 13290.1
  WARNING 03: negative offset ignored for Link 13291.1
  WARNING 03: negative offset ignored for Link 13291.1
  WARNING 03: negative offset ignored for Link 13292.1
  WARNING 03: negative offset ignored for Link 13292.1
  WARNING 03: negative offset ignored for Link 13294.1
  WARNING 03: negative offset ignored for Link 13294.1
  WARNING 03: negative offset ignored for Link 13295.1
  WARNING 03: negative offset ignored for Link 13295.1
  WARNING 03: negative offset ignored for Link 13296.1
  WARNING 03: negative offset ignored for Link 13296.1
  WARNING 03: negative offset ignored for Link 13297.1
  WARNING 03: negative offset ignored for Link 13297.1
  WARNING 03: negative offset ignored for Link 13298.1
  WARNING 03: negative offset ignored for Link 13298.1
  WARNING 03: negative offset ignored for Link 13299.1
  WARNING 03: negative offset ignored for Link 13299.1
  WARNING 03: negative offset ignored for Link 13300.1
  WARNING 03: negative offset ignored for Link 13300.1
  WARNING 03: negative offset ignored for Link 13301.1
  WARNING 03: negative offset ignored for Link 13301.1
  WARNING 03: negative offset ignored for Link 13304.1
  WARNING 03: negative offset ignored for Link 13304.1
  WARNING 03: negative offset ignored for Link 13305.1
  WARNING 03: negative offset ignored for Link 13305.1
  WARNING 03: negative offset ignored for Link 13306.1
  WARNING 03: negative offset ignored for Link 13306.1
  WARNING 03: negative offset ignored for Link 13307.1
  WARNING 03: negative offset ignored for Link 13307.1
  WARNING 03: negative offset ignored for Link 13308.1
  WARNING 03: negative offset ignored for Link 13308.1
  WARNING 03: negative offset ignored for Link 13309.1
  WARNING 03: negative offset ignored for Link 13309.1
  WARNING 03: negative offset ignored for Link 13310.1
  WARNING 03: negative offset ignored for Link 13310.1
  WARNING 03: negative offset ignored for Link 13311.1
  WARNING 03: negative offset ignored for Link 13311.1
  WARNING 03: negative offset ignored for Link 13312.1
  WARNING 03: negative offset ignored for Link 13312.1
  WARNING 03: negative offset ignored for Link 13312.2
  WARNING 03: negative offset ignored for Link 13312.2
  WARNING 03: negative offset ignored for Link 13313.1
  WARNING 03: negative offset ignored for Link 13313.1
  WARNING 03: negative offset ignored for Link 13314.1
  WARNING 03: negative offset ignored for Link 13314.1
  WARNING 03: negative offset ignored for Link 13315.1
  WARNING 03: negative offset ignored for Link 13315.1
  WARNING 03: negative offset ignored for Link 13316.1
  WARNING 03: negative offset ignored for Link 13316.1
  WARNING 03: negative offset ignored for Link 13317.1
  WARNING 03: negative offset ignored for Link 13317.1
  WARNING 03: negative offset ignored for Link 13318.1
  WARNING 03: negative offset ignored for Link 13318.1
  WARNING 03: negative offset ignored for Link 13319.1
  WARNING 03: negative offset ignored for Link 13319.1
  WARNING 03: negative offset ignored for Link 13320.1
  WARNING 03: negative offset ignored for Link 13320.1
  WARNING 03: negative offset ignored for Link 13321.1
  WARNING 03: negative offset ignored for Link 13321.1
  WARNING 03: negative offset ignored for Link 13322.1
  WARNING 03: negative offset ignored for Link 13322.1
  WARNING 03: negative offset ignored for Link 13323.1
  WARNING 03: negative offset ignored for Link 13323.1
  WARNING 03: negative offset ignored for Link 13324.1
  WARNING 03: negative offset ignored for Link 13324.1
  WARNING 03: negative offset ignored for Link 13325.1
  WARNING 03: negative offset ignored for Link 13325.1
  WARNING 03: negative offset ignored for Link 13326.1
  WARNING 03: negative offset ignored for Link 13326.1
  WARNING 03: negative offset ignored for Link 13327.1
  WARNING 03: negative offset ignored for Link 13327.1
  WARNING 03: negative offset ignored for Link 13328.1
  WARNING 03: negative offset ignored for Link 13328.1
  WARNING 03: negative offset ignored for Link 13329.1
  WARNING 03: negative offset ignored for Link 13329.1
  WARNING 03: negative offset ignored for Link 13330.1
  WARNING 03: negative offset ignored for Link 13330.1
  WARNING 03: negative offset ignored for Link 13331.1
  WARNING 03: negative offset ignored for Link 13331.1
  WARNING 03: negative offset ignored for Link 13332.1
  WARNING 03: negative offset ignored for Link 13332.1
  WARNING 03: negative offset ignored for Link 13333.1
  WARNING 03: negative offset ignored for Link 13333.1
  WARNING 03: negative offset ignored for Link 13334.1
  WARNING 03: negative offset ignored for Link 13334.1
  WARNING 03: negative offset ignored for Link 13335.1
  WARNING 03: negative offset ignored for Link 13335.1
  WARNING 03: negative offset ignored for Link 13336.1
  WARNING 03: negative offset ignored for Link 13336.1
  WARNING 03: negative offset ignored for Link 13337.1
  WARNING 03: negative offset ignored for Link 13337.1
  WARNING 03: negative offset ignored for Link 13338.1
  WARNING 03: negative offset ignored for Link 13338.1
  WARNING 03: negative offset ignored for Link 13339.1
  WARNING 03: negative offset ignored for Link 13339.1
  WARNING 03: negative offset ignored for Link 13340.1
  WARNING 03: negative offset ignored for Link 13340.1
  WARNING 03: negative offset ignored for Link 13342.1
  WARNING 03: negative offset ignored for Link 13342.1
  WARNING 03: negative offset ignored for Link 13343.1
  WARNING 03: negative offset ignored for Link 13343.1
  WARNING 03: negative offset ignored for Link 13344.1
  WARNING 03: negative offset ignored for Link 13344.1
  WARNING 03: negative offset ignored for Link 13345.1
  WARNING 03: negative offset ignored for Link 13345.1
  WARNING 03: negative offset ignored for Link 13346.1
  WARNING 03: negative offset ignored for Link 13346.1
  WARNING 03: negative offset ignored for Link 13347.1
  WARNING 03: negative offset ignored for Link 13347.1
  WARNING 03: negative offset ignored for Link 13348.1
  WARNING 03: negative offset ignored for Link 13348.1
  WARNING 03: negative offset ignored for Link 13349.1
  WARNING 03: negative offset ignored for Link 13349.1
  WARNING 03: negative offset ignored for Link 13350.1
  WARNING 03: negative offset ignored for Link 13350.1
  WARNING 03: negative offset ignored for Link 13351.1
  WARNING 03: negative offset ignored for Link 13351.1
  WARNING 03: negative offset ignored for Link 13351.2
  WARNING 03: negative offset ignored for Link 13351.2
  WARNING 03: negative offset ignored for Link 13352.1
  WARNING 03: negative offset ignored for Link 13352.1
  WARNING 03: negative offset ignored for Link 13353.1
  WARNING 03: negative offset ignored for Link 13353.1
  WARNING 03: negative offset ignored for Link 13354.1
  WARNING 03: negative offset ignored for Link 13354.1
  WARNING 03: negative offset ignored for Link 13355.1
  WARNING 03: negative offset ignored for Link 13355.1
  WARNING 03: negative offset ignored for Link 13357.1
  WARNING 03: negative offset ignored for Link 13357.1
  WARNING 03: negative offset ignored for Link 13358.1
  WARNING 03: negative offset ignored for Link 13358.1
  WARNING 03: negative offset ignored for Link 13358.2
  WARNING 03: negative offset ignored for Link 13358.2
  WARNING 03: negative offset ignored for Link 13359.1
  WARNING 03: negative offset ignored for Link 13359.1
  WARNING 03: negative offset ignored for Link 13360.1
  WARNING 03: negative offset ignored for Link 13360.1
  WARNING 03: negative offset ignored for Link 13361.1
  WARNING 03: negative offset ignored for Link 13361.1
  WARNING 03: negative offset ignored for Link 13363.1
  WARNING 03: negative offset ignored for Link 13363.1
  WARNING 03: negative offset ignored for Link 13367.1
  WARNING 03: negative offset ignored for Link 13367.1
  WARNING 03: negative offset ignored for Link 13369.1
  WARNING 03: negative offset ignored for Link 13369.1
  WARNING 03: negative offset ignored for Link 13370.1
  WARNING 03: negative offset ignored for Link 13370.1
  WARNING 03: negative offset ignored for Link 13371.1
  WARNING 03: negative offset ignored for Link 13371.1
  WARNING 03: negative offset ignored for Link 13372.1
  WARNING 03: negative offset ignored for Link 13372.1
  WARNING 03: negative offset ignored for Link 13373.1
  WARNING 03: negative offset ignored for Link 13373.1
  WARNING 03: negative offset ignored for Link 13374.1
  WARNING 03: negative offset ignored for Link 13374.1
  WARNING 03: negative offset ignored for Link 13375.1
  WARNING 03: negative offset ignored for Link 13375.1
  WARNING 03: negative offset ignored for Link 13376.1
  WARNING 03: negative offset ignored for Link 13376.1
  WARNING 03: negative offset ignored for Link 13377.1
  WARNING 03: negative offset ignored for Link 13377.1
  WARNING 03: negative offset ignored for Link 13378.1
  WARNING 03: negative offset ignored for Link 13378.1
  WARNING 03: negative offset ignored for Link 13379.1
  WARNING 03: negative offset ignored for Link 13379.1
  WARNING 03: negative offset ignored for Link 13380.1
  WARNING 03: negative offset ignored for Link 13380.1
  WARNING 03: negative offset ignored for Link 13382.1
  WARNING 03: negative offset ignored for Link 13382.1
  WARNING 03: negative offset ignored for Link 13383.1
  WARNING 03: negative offset ignored for Link 13383.1
  WARNING 03: negative offset ignored for Link 13384.1
  WARNING 03: negative offset ignored for Link 13384.1
  WARNING 03: negative offset ignored for Link 13385.1
  WARNING 03: negative offset ignored for Link 13385.1
  WARNING 03: negative offset ignored for Link 13538.1
  WARNING 03: negative offset ignored for Link 13538.1
  WARNING 03: negative offset ignored for Link 13539.1
  WARNING 03: negative offset ignored for Link 13539.1
  WARNING 03: negative offset ignored for Link 13540.1
  WARNING 03: negative offset ignored for Link 13540.1
  WARNING 03: negative offset ignored for Link 13541.1
  WARNING 03: negative offset ignored for Link 13541.1
  WARNING 03: negative offset ignored for Link 13542.1
  WARNING 03: negative offset ignored for Link 13542.1
  WARNING 03: negative offset ignored for Link 13543.1
  WARNING 03: negative offset ignored for Link 13543.1
  WARNING 03: negative offset ignored for Link 13543.2
  WARNING 03: negative offset ignored for Link 13543.2
  WARNING 03: negative offset ignored for Link 13544.1
  WARNING 03: negative offset ignored for Link 13544.1
  WARNING 03: negative offset ignored for Link 13545.1
  WARNING 03: negative offset ignored for Link 13545.1
  WARNING 03: negative offset ignored for Link 13546.1
  WARNING 03: negative offset ignored for Link 13546.1
  WARNING 03: negative offset ignored for Link 13547.1
  WARNING 03: negative offset ignored for Link 13547.1
  WARNING 03: negative offset ignored for Link 13548.1
  WARNING 03: negative offset ignored for Link 13548.1
  WARNING 03: negative offset ignored for Link 13549.1
  WARNING 03: negative offset ignored for Link 13549.1
  WARNING 03: negative offset ignored for Link 13550.1
  WARNING 03: negative offset ignored for Link 13550.1
  WARNING 03: negative offset ignored for Link 13551.1
  WARNING 03: negative offset ignored for Link 13551.1
  WARNING 03: negative offset ignored for Link 13551.2
  WARNING 03: negative offset ignored for Link 13551.2
  WARNING 03: negative offset ignored for Link 13552.1
  WARNING 03: negative offset ignored for Link 13552.1
  WARNING 03: negative offset ignored for Link 13553.1
  WARNING 03: negative offset ignored for Link 13553.1
  WARNING 03: negative offset ignored for Link 13554.1
  WARNING 03: negative offset ignored for Link 13554.1
  WARNING 03: negative offset ignored for Link 13555.1
  WARNING 03: negative offset ignored for Link 13555.1
  WARNING 03: negative offset ignored for Link 13556.1
  WARNING 03: negative offset ignored for Link 13556.1
  WARNING 03: negative offset ignored for Link 13557.1
  WARNING 03: negative offset ignored for Link 13557.1
  WARNING 03: negative offset ignored for Link 13558.1
  WARNING 03: negative offset ignored for Link 13558.1
  WARNING 03: negative offset ignored for Link 13559.1
  WARNING 03: negative offset ignored for Link 13559.1
  WARNING 03: negative offset ignored for Link 13560.1
  WARNING 03: negative offset ignored for Link 13560.1
  WARNING 03: negative offset ignored for Link 13561.1
  WARNING 03: negative offset ignored for Link 13561.1
  WARNING 03: negative offset ignored for Link 13562.1
  WARNING 03: negative offset ignored for Link 13562.1
  WARNING 03: negative offset ignored for Link 13563.1
  WARNING 03: negative offset ignored for Link 13563.1
  WARNING 03: negative offset ignored for Link 13564.1
  WARNING 03: negative offset ignored for Link 13564.1
  WARNING 03: negative offset ignored for Link 13565.1
  WARNING 03: negative offset ignored for Link 13565.1
  WARNING 03: negative offset ignored for Link 13566.1
  WARNING 03: negative offset ignored for Link 13566.1
  WARNING 03: negative offset ignored for Link 13568.1
  WARNING 03: negative offset ignored for Link 13568.1
  WARNING 03: negative offset ignored for Link 13569.1
  WARNING 03: negative offset ignored for Link 13569.1
  WARNING 03: negative offset ignored for Link 13570.1
  WARNING 03: negative offset ignored for Link 13570.1
  WARNING 03: negative offset ignored for Link 13571.1
  WARNING 03: negative offset ignored for Link 13571.1
  WARNING 03: negative offset ignored for Link 13572.1
  WARNING 03: negative offset ignored for Link 13572.1
  WARNING 03: negative offset ignored for Link 13573.1
  WARNING 03: negative offset ignored for Link 13573.1
  WARNING 03: negative offset ignored for Link 13574.1
  WARNING 03: negative offset ignored for Link 13574.1
  WARNING 03: negative offset ignored for Link 13575.1
  WARNING 03: negative offset ignored for Link 13575.1
  WARNING 03: negative offset ignored for Link 13576.1
  WARNING 03: negative offset ignored for Link 13576.1
  WARNING 03: negative offset ignored for Link 13577.1
  WARNING 03: negative offset ignored for Link 13577.1
  WARNING 03: negative offset ignored for Link 13579.1
  WARNING 03: negative offset ignored for Link 13579.1
  WARNING 03: negative offset ignored for Link 13580.1
  WARNING 03: negative offset ignored for Link 13580.1
  WARNING 03: negative offset ignored for Link 13581.1
  WARNING 03: negative offset ignored for Link 13581.1
  WARNING 03: negative offset ignored for Link 13583.1
  WARNING 03: negative offset ignored for Link 13583.1
  WARNING 03: negative offset ignored for Link 13584.1
  WARNING 03: negative offset ignored for Link 13584.1
  WARNING 03: negative offset ignored for Link 13585.1
  WARNING 03: negative offset ignored for Link 13585.1
  WARNING 03: negative offset ignored for Link 13586.1
  WARNING 03: negative offset ignored for Link 13586.1
  WARNING 03: negative offset ignored for Link 13587.1
  WARNING 03: negative offset ignored for Link 13587.1
  WARNING 03: negative offset ignored for Link 13588.1
  WARNING 03: negative offset ignored for Link 13588.1
  WARNING 03: negative offset ignored for Link 13589.1
  WARNING 03: negative offset ignored for Link 13589.1
  WARNING 03: negative offset ignored for Link 13590.1
  WARNING 03: negative offset ignored for Link 13590.1
  WARNING 03: negative offset ignored for Link 13591.1
  WARNING 03: negative offset ignored for Link 13591.1
  WARNING 03: negative offset ignored for Link 13592.1
  WARNING 03: negative offset ignored for Link 13592.1
  WARNING 03: negative offset ignored for Link 13593.1
  WARNING 03: negative offset ignored for Link 13593.1
  WARNING 03: negative offset ignored for Link 13594.1
  WARNING 03: negative offset ignored for Link 13594.1
  WARNING 03: negative offset ignored for Link 13595.1
  WARNING 03: negative offset ignored for Link 13595.1
  WARNING 03: negative offset ignored for Link 13596.1
  WARNING 03: negative offset ignored for Link 13596.1
  WARNING 03: negative offset ignored for Link 13597.1
  WARNING 03: negative offset ignored for Link 13597.1
  WARNING 03: negative offset ignored for Link 13598.1
  WARNING 03: negative offset ignored for Link 13598.1
  WARNING 03: negative offset ignored for Link 13599.1
  WARNING 08: elevation drop exceeds length for Conduit 13599.1
  WARNING 03: negative offset ignored for Link 13600.1
  WARNING 03: negative offset ignored for Link 13600.1
  WARNING 03: negative offset ignored for Link 13601.1
  WARNING 03: negative offset ignored for Link 13601.1
  WARNING 03: negative offset ignored for Link 13602.1
  WARNING 03: negative offset ignored for Link 13602.1
  WARNING 03: negative offset ignored for Link 13603.1
  WARNING 03: negative offset ignored for Link 13603.1
  WARNING 03: negative offset ignored for Link 13603.2
  WARNING 03: negative offset ignored for Link 13603.2
  WARNING 03: negative offset ignored for Link 13604.1
  WARNING 03: negative offset ignored for Link 13604.1
  WARNING 03: negative offset ignored for Link 13604.2
  WARNING 03: negative offset ignored for Link 13604.2
  WARNING 03: negative offset ignored for Link 13605.1
  WARNING 03: negative offset ignored for Link 13605.1
  WARNING 03: negative offset ignored for Link 13605.2
  WARNING 03: negative offset ignored for Link 13605.2
  WARNING 03: negative offset ignored for Link 13606.1
  WARNING 03: negative offset ignored for Link 13606.1
  WARNING 03: negative offset ignored for Link 13607.1
  WARNING 03: negative offset ignored for Link 13607.1
  WARNING 03: negative offset ignored for Link 13608.1
  WARNING 03: negative offset ignored for Link 13608.1
  WARNING 03: negative offset ignored for Link 13609.1
  WARNING 03: negative offset ignored for Link 13609.1
  WARNING 03: negative offset ignored for Link 13610.1
  WARNING 03: negative offset ignored for Link 13610.1
  WARNING 03: negative offset ignored for Link 13611.1
  WARNING 03: negative offset ignored for Link 13611.1
  WARNING 03: negative offset ignored for Link 13612.1
  WARNING 03: negative offset ignored for Link 13612.1
  WARNING 03: negative offset ignored for Link 13613.1
  WARNING 03: negative offset ignored for Link 13613.1
  WARNING 03: negative offset ignored for Link 13614.1
  WARNING 03: negative offset ignored for Link 13614.1
  WARNING 03: negative offset ignored for Link 13615.1
  WARNING 03: negative offset ignored for Link 13615.1
  WARNING 03: negative offset ignored for Link 13616.1
  WARNING 03: negative offset ignored for Link 13616.1
  WARNING 03: negative offset ignored for Link 13617.1
  WARNING 03: negative offset ignored for Link 13617.1
  WARNING 03: negative offset ignored for Link 13618.1
  WARNING 03: negative offset ignored for Link 13618.1
  WARNING 03: negative offset ignored for Link 13619.1
  WARNING 03: negative offset ignored for Link 13619.1
  WARNING 03: negative offset ignored for Link 13620.1
  WARNING 03: negative offset ignored for Link 13620.1
  WARNING 03: negative offset ignored for Link 13621.1
  WARNING 03: negative offset ignored for Link 13621.1
  WARNING 03: negative offset ignored for Link 13622.1
  WARNING 03: negative offset ignored for Link 13622.1
  WARNING 03: negative offset ignored for Link 13622.2
  WARNING 03: negative offset ignored for Link 13622.2
  WARNING 03: negative offset ignored for Link 13623.1
  WARNING 03: negative offset ignored for Link 13623.1
  WARNING 03: negative offset ignored for Link 13625.1
  WARNING 03: negative offset ignored for Link 13625.1
  WARNING 03: negative offset ignored for Link 13626.1
  WARNING 03: negative offset ignored for Link 13626.1
  WARNING 03: negative offset ignored for Link 13627.1
  WARNING 03: negative offset ignored for Link 13627.1
  WARNING 03: negative offset ignored for Link 13628.1
  WARNING 03: negative offset ignored for Link 13628.1
  WARNING 03: negative offset ignored for Link 13629.1
  WARNING 03: negative offset ignored for Link 13629.1
  WARNING 03: negative offset ignored for Link 13630.1
  WARNING 03: negative offset ignored for Link 13630.1
  WARNING 03: negative offset ignored for Link 13631.1
  WARNING 03: negative offset ignored for Link 13631.1
  WARNING 03: negative offset ignored for Link 13632.1
  WARNING 03: negative offset ignored for Link 13632.1
  WARNING 03: negative offset ignored for Link 13633.1
  WARNING 03: negative offset ignored for Link 13633.1
  WARNING 03: negative offset ignored for Link 13634.1
  WARNING 03: negative offset ignored for Link 13634.1
  WARNING 03: negative offset ignored for Link 13634.2
  WARNING 03: negative offset ignored for Link 13634.2
  WARNING 03: negative offset ignored for Link 13635.1
  WARNING 03: negative offset ignored for Link 13635.1
  WARNING 03: negative offset ignored for Link 13636.1
  WARNING 03: negative offset ignored for Link 13636.1
  WARNING 03: negative offset ignored for Link 13637.1
  WARNING 03: negative offset ignored for Link 13637.1
  WARNING 03: negative offset ignored for Link 13638.1
  WARNING 03: negative offset ignored for Link 13638.1
  WARNING 03: negative offset ignored for Link 13639.1
  WARNING 03: negative offset ignored for Link 13639.1
  WARNING 03: negative offset ignored for Link 13640.1
  WARNING 03: negative offset ignored for Link 13640.1
  WARNING 03: negative offset ignored for Link 13641.1
  WARNING 03: negative offset ignored for Link 13641.1
  WARNING 03: negative offset ignored for Link 13642.1
  WARNING 03: negative offset ignored for Link 13642.1
  WARNING 03: negative offset ignored for Link 13643.1
  WARNING 03: negative offset ignored for Link 13643.1
  WARNING 03: negative offset ignored for Link 13644.1
  WARNING 03: negative offset ignored for Link 13644.1
  WARNING 03: negative offset ignored for Link 13645.1
  WARNING 03: negative offset ignored for Link 13645.1
  WARNING 03: negative offset ignored for Link 13645.2
  WARNING 03: negative offset ignored for Link 13645.2
  WARNING 03: negative offset ignored for Link 13646.1
  WARNING 03: negative offset ignored for Link 13646.1
  WARNING 03: negative offset ignored for Link 13647.1
  WARNING 03: negative offset ignored for Link 13647.1
  WARNING 03: negative offset ignored for Link 13648.1
  WARNING 03: negative offset ignored for Link 13648.1
  WARNING 03: negative offset ignored for Link 13649.1
  WARNING 03: negative offset ignored for Link 13649.1
  WARNING 03: negative offset ignored for Link 13650.1
  WARNING 03: negative offset ignored for Link 13650.1
  WARNING 03: negative offset ignored for Link 13651.1
  WARNING 03: negative offset ignored for Link 13651.1
  WARNING 03: negative offset ignored for Link 13652.1
  WARNING 03: negative offset ignored for Link 13652.1
  WARNING 03: negative offset ignored for Link 13653.1
  WARNING 03: negative offset ignored for Link 13653.1
  WARNING 03: negative offset ignored for Link 13654.1
  WARNING 03: negative offset ignored for Link 13654.1
  WARNING 03: negative offset ignored for Link 13655.1
  WARNING 03: negative offset ignored for Link 13655.1
  WARNING 03: negative offset ignored for Link 13656.1
  WARNING 03: negative offset ignored for Link 13656.1
  WARNING 03: negative offset ignored for Link 13657.1
  WARNING 03: negative offset ignored for Link 13657.1
  WARNING 03: negative offset ignored for Link 13658.1
  WARNING 03: negative offset ignored for Link 13658.1
  WARNING 03: negative offset ignored for Link 13659.1
  WARNING 03: negative offset ignored for Link 13659.1
  WARNING 03: negative offset ignored for Link 13660.1
  WARNING 03: negative offset ignored for Link 13660.1
  WARNING 03: negative offset ignored for Link 13661.1
  WARNING 03: negative offset ignored for Link 13661.1
  WARNING 03: negative offset ignored for Link 13662.1
  WARNING 03: negative offset ignored for Link 13662.1
  WARNING 03: negative offset ignored for Link 13663.1
  WARNING 03: negative offset ignored for Link 13663.1
  WARNING 03: negative offset ignored for Link 13664.1
  WARNING 03: negative offset ignored for Link 13664.1
  WARNING 03: negative offset ignored for Link 13665.1
  WARNING 03: negative offset ignored for Link 13665.1
  WARNING 03: negative offset ignored for Link 13666.1
  WARNING 03: negative offset ignored for Link 13666.1
  WARNING 03: negative offset ignored for Link 13667.1
  WARNING 03: negative offset ignored for Link 13667.1
  WARNING 03: negative offset ignored for Link 13668.1
  WARNING 03: negative offset ignored for Link 13668.1
  WARNING 03: negative offset ignored for Link 13669.1
  WARNING 03: negative offset ignored for Link 13669.1
  WARNING 03: negative offset ignored for Link 13670.1
  WARNING 03: negative offset ignored for Link 13670.1
  WARNING 03: negative offset ignored for Link 13670.2
  WARNING 03: negative offset ignored for Link 13670.2
  WARNING 03: negative offset ignored for Link 13671.1
  WARNING 03: negative offset ignored for Link 13671.1
  WARNING 03: negative offset ignored for Link 13672.1
  WARNING 03: negative offset ignored for Link 13672.1
  WARNING 03: negative offset ignored for Link 13673.1
  WARNING 03: negative offset ignored for Link 13673.1
  WARNING 03: negative offset ignored for Link 13674.1
  WARNING 03: negative offset ignored for Link 13674.1
  WARNING 03: negative offset ignored for Link 13675.1
  WARNING 03: negative offset ignored for Link 13675.1
  WARNING 03: negative offset ignored for Link 13676.1
  WARNING 03: negative offset ignored for Link 13676.1
  WARNING 03: negative offset ignored for Link 13677.1
  WARNING 03: negative offset ignored for Link 13677.1
  WARNING 03: negative offset ignored for Link 13678.1
  WARNING 03: negative offset ignored for Link 13678.1
  WARNING 03: negative offset ignored for Link 13679.1
  WARNING 03: negative offset ignored for Link 13679.1
  WARNING 03: negative offset ignored for Link 13680.1
  WARNING 03: negative offset ignored for Link 13680.1
  WARNING 03: negative offset ignored for Link 13681.1
  WARNING 03: negative offset ignored for Link 13681.1
  WARNING 03: negative offset ignored for Link 13682.1
  WARNING 03: negative offset ignored for Link 13682.1
  WARNING 03: negative offset ignored for Link 13683.1
  WARNING 03: negative offset ignored for Link 13683.1
  WARNING 03: negative offset ignored for Link 13684.1
  WARNING 03: negative offset ignored for Link 13684.1
  WARNING 03: negative offset ignored for Link 13684.2
  WARNING 03: negative offset ignored for Link 13684.2
  WARNING 03: negative offset ignored for Link 13685.1
  WARNING 03: negative offset ignored for Link 13685.1
  WARNING 03: negative offset ignored for Link 13686.1
  WARNING 03: negative offset ignored for Link 13686.1
  WARNING 03: negative offset ignored for Link 13687.1
  WARNING 03: negative offset ignored for Link 13687.1
  WARNING 03: negative offset ignored for Link 13688.1
  WARNING 03: negative offset ignored for Link 13688.1
  WARNING 03: negative offset ignored for Link 13689.1
  WARNING 03: negative offset ignored for Link 13689.1
  WARNING 03: negative offset ignored for Link 13691.1
  WARNING 03: negative offset ignored for Link 13691.1
  WARNING 03: negative offset ignored for Link 13692.1
  WARNING 03: negative offset ignored for Link 13692.1
  WARNING 03: negative offset ignored for Link 13693.1
  WARNING 03: negative offset ignored for Link 13693.1
  WARNING 03: negative offset ignored for Link 13694.1
  WARNING 03: negative offset ignored for Link 13694.1
  WARNING 03: negative offset ignored for Link 13695.1
  WARNING 03: negative offset ignored for Link 13695.1
  WARNING 03: negative offset ignored for Link 13696.1
  WARNING 03: negative offset ignored for Link 13696.1
  WARNING 03: negative offset ignored for Link 13697.1
  WARNING 03: negative offset ignored for Link 13697.1
  WARNING 03: negative offset ignored for Link 13698.1
  WARNING 03: negative offset ignored for Link 13698.1
  WARNING 03: negative offset ignored for Link 13699.1
  WARNING 08: elevation drop exceeds length for Conduit 13699.1
  WARNING 03: negative offset ignored for Link 13714.1
  WARNING 03: negative offset ignored for Link 13714.1
  WARNING 03: negative offset ignored for Link 13715.1
  WARNING 03: negative offset ignored for Link 13715.1
  WARNING 03: negative offset ignored for Link 13716.1
  WARNING 03: negative offset ignored for Link 13716.1
  WARNING 03: negative offset ignored for Link 13717.1
  WARNING 03: negative offset ignored for Link 13717.1
  WARNING 03: negative offset ignored for Link 13718.1
  WARNING 03: negative offset ignored for Link 13718.1
  WARNING 03: negative offset ignored for Link 13719.1
  WARNING 03: negative offset ignored for Link 13719.1
  WARNING 03: negative offset ignored for Link 13720.1
  WARNING 03: negative offset ignored for Link 13720.1
  WARNING 03: negative offset ignored for Link 13721.1
  WARNING 03: negative offset ignored for Link 13721.1
  WARNING 03: negative offset ignored for Link 13722.1
  WARNING 03: negative offset ignored for Link 13722.1
  WARNING 03: negative offset ignored for Link 13723.1
  WARNING 08: elevation drop exceeds length for Conduit 13723.1
  WARNING 03: negative offset ignored for Link 13724.1
  WARNING 03: negative offset ignored for Link 13724.1
  WARNING 03: negative offset ignored for Link 13725.1
  WARNING 03: negative offset ignored for Link 13725.1
  WARNING 03: negative offset ignored for Link 13726.1
  WARNING 03: negative offset ignored for Link 13726.1
  WARNING 03: negative offset ignored for Link 13727.1
  WARNING 03: negative offset ignored for Link 13727.1
  WARNING 03: negative offset ignored for Link 13729.1
  WARNING 03: negative offset ignored for Link 13729.1
  WARNING 03: negative offset ignored for Link 13730.1
  WARNING 03: negative offset ignored for Link 13730.1
  WARNING 03: negative offset ignored for Link 13731.1
  WARNING 03: negative offset ignored for Link 13731.1
  WARNING 03: negative offset ignored for Link 13732.1
  WARNING 08: elevation drop exceeds length for Conduit 13732.1
  WARNING 03: negative offset ignored for Link 13733.1
  WARNING 03: negative offset ignored for Link 13733.1
  WARNING 03: negative offset ignored for Link 13734.1
  WARNING 03: negative offset ignored for Link 13734.1
  WARNING 03: negative offset ignored for Link 13735.1
  WARNING 03: negative offset ignored for Link 13735.1
  WARNING 03: negative offset ignored for Link 13736.1
  WARNING 03: negative offset ignored for Link 13736.1
  WARNING 03: negative offset ignored for Link 13737.1
  WARNING 03: negative offset ignored for Link 13737.1
  WARNING 03: negative offset ignored for Link 13738.1
  WARNING 03: negative offset ignored for Link 13738.1
  WARNING 03: negative offset ignored for Link 13739.1
  WARNING 03: negative offset ignored for Link 13739.1
  WARNING 03: negative offset ignored for Link 13740.1
  WARNING 03: negative offset ignored for Link 13740.1
  WARNING 03: negative offset ignored for Link 13741.1
  WARNING 03: negative offset ignored for Link 13741.1
  WARNING 03: negative offset ignored for Link 13742.1
  WARNING 03: negative offset ignored for Link 13742.1
  WARNING 03: negative offset ignored for Link 13743.1
  WARNING 03: negative offset ignored for Link 13743.1
  WARNING 03: negative offset ignored for Link 13744.1
  WARNING 03: negative offset ignored for Link 13744.1
  WARNING 03: negative offset ignored for Link 13745.1
  WARNING 03: negative offset ignored for Link 13745.1
  WARNING 03: negative offset ignored for Link 13746.1
  WARNING 03: negative offset ignored for Link 13746.1
  WARNING 03: negative offset ignored for Link 13747.1
  WARNING 03: negative offset ignored for Link 13747.1
  WARNING 03: negative offset ignored for Link 13748.1
  WARNING 03: negative offset ignored for Link 13748.1
  WARNING 03: negative offset ignored for Link 13749.1
  WARNING 03: negative offset ignored for Link 13749.1
  WARNING 03: negative offset ignored for Link 13750.1
  WARNING 03: negative offset ignored for Link 13750.1
  WARNING 03: negative offset ignored for Link 13752.1
  WARNING 03: negative offset ignored for Link 13752.1
  WARNING 03: negative offset ignored for Link 13753.1
  WARNING 03: negative offset ignored for Link 13753.1
  WARNING 03: negative offset ignored for Link 13754.1
  WARNING 08: elevation drop exceeds length for Conduit 13754.1
  WARNING 03: negative offset ignored for Link 13756.1
  WARNING 03: negative offset ignored for Link 13756.1
  WARNING 03: negative offset ignored for Link 13757.1
  WARNING 03: negative offset ignored for Link 13757.1
  WARNING 03: negative offset ignored for Link 13758.1
  WARNING 03: negative offset ignored for Link 13758.1
  WARNING 03: negative offset ignored for Link 13760.1
  WARNING 03: negative offset ignored for Link 13760.1
  WARNING 03: negative offset ignored for Link 13761.1
  WARNING 03: negative offset ignored for Link 13761.1
  WARNING 03: negative offset ignored for Link 13762.1
  WARNING 03: negative offset ignored for Link 13762.1
  WARNING 03: negative offset ignored for Link 13763.1
  WARNING 03: negative offset ignored for Link 13763.1
  WARNING 03: negative offset ignored for Link 13764.1
  WARNING 03: negative offset ignored for Link 13764.1
  WARNING 03: negative offset ignored for Link 13765.1
  WARNING 03: negative offset ignored for Link 13765.1
  WARNING 03: negative offset ignored for Link 13766.1
  WARNING 03: negative offset ignored for Link 13766.1
  WARNING 03: negative offset ignored for Link 13767.1
  WARNING 03: negative offset ignored for Link 13767.1
  WARNING 03: negative offset ignored for Link 13769.1
  WARNING 03: negative offset ignored for Link 13769.1
  WARNING 03: negative offset ignored for Link 13770.1
  WARNING 03: negative offset ignored for Link 13770.1
  WARNING 03: negative offset ignored for Link 13773.1
  WARNING 03: negative offset ignored for Link 13773.1
  WARNING 03: negative offset ignored for Link 13774.1
  WARNING 03: negative offset ignored for Link 13774.1
  WARNING 03: negative offset ignored for Link 13775.1
  WARNING 03: negative offset ignored for Link 13775.1
  WARNING 03: negative offset ignored for Link 13776.1
  WARNING 03: negative offset ignored for Link 13776.1
  WARNING 03: negative offset ignored for Link 13777.1
  WARNING 03: negative offset ignored for Link 13777.1
  WARNING 03: negative offset ignored for Link 13778.1
  WARNING 03: negative offset ignored for Link 13778.1
  WARNING 03: negative offset ignored for Link 13779.1
  WARNING 03: negative offset ignored for Link 13779.1
  WARNING 03: negative offset ignored for Link 13780.1
  WARNING 03: negative offset ignored for Link 13780.1
  WARNING 03: negative offset ignored for Link 13782.1
  WARNING 03: negative offset ignored for Link 13782.1
  WARNING 03: negative offset ignored for Link 13783.1
  WARNING 03: negative offset ignored for Link 13783.1
  WARNING 03: negative offset ignored for Link 13784.2
  WARNING 08: elevation drop exceeds length for Conduit 13784.2
  WARNING 03: negative offset ignored for Link 13785.1
  WARNING 03: negative offset ignored for Link 13785.1
  WARNING 03: negative offset ignored for Link 13786.1
  WARNING 03: negative offset ignored for Link 13786.1
  WARNING 03: negative offset ignored for Link 13787.1
  WARNING 03: negative offset ignored for Link 13787.1
  WARNING 03: negative offset ignored for Link 13788.1
  WARNING 03: negative offset ignored for Link 13788.1
  WARNING 03: negative offset ignored for Link 13789.1
  WARNING 03: negative offset ignored for Link 13789.1
  WARNING 03: negative offset ignored for Link 13790.1
  WARNING 03: negative offset ignored for Link 13790.1
  WARNING 03: negative offset ignored for Link 13791.1
  WARNING 03: negative offset ignored for Link 13791.1
  WARNING 03: negative offset ignored for Link 13792.1
  WARNING 03: negative offset ignored for Link 13792.1
  WARNING 03: negative offset ignored for Link 13793.1
  WARNING 03: negative offset ignored for Link 13793.1
  WARNING 03: negative offset ignored for Link 13794.1
  WARNING 03: negative offset ignored for Link 13794.1
  WARNING 03: negative offset ignored for Link 13795.1
  WARNING 03: negative offset ignored for Link 13795.1
  WARNING 03: negative offset ignored for Link 13796.1
  WARNING 03: negative offset ignored for Link 13796.1
  WARNING 03: negative offset ignored for Link 13797.1
  WARNING 03: negative offset ignored for Link 13797.1
  WARNING 03: negative offset ignored for Link 13798.1
  WARNING 08: elevation drop exceeds length for Conduit 13798.1
  WARNING 03: negative offset ignored for Link 13799.1
  WARNING 03: negative offset ignored for Link 13799.1
  WARNING 03: negative offset ignored for Link 13800.1
  WARNING 03: negative offset ignored for Link 13800.1
  WARNING 03: negative offset ignored for Link 13801.1
  WARNING 03: negative offset ignored for Link 13801.1
  WARNING 03: negative offset ignored for Link 13801.2
  WARNING 08: elevation drop exceeds length for Conduit 13801.2
  WARNING 03: negative offset ignored for Link 13803.1
  WARNING 08: elevation drop exceeds length for Conduit 13817.2
  WARNING 08: elevation drop exceeds length for Conduit 13817.3
  WARNING 08: elevation drop exceeds length for Conduit 13820.2
  WARNING 08: elevation drop exceeds length for Conduit 13823.2
  WARNING 04: minimum elevation drop used for Conduit 13843.1
  WARNING 03: negative offset ignored for Link 13847.1
  WARNING 08: elevation drop exceeds length for Conduit 13847.1
  WARNING 04: minimum elevation drop used for Conduit 13849.1
  WARNING 04: minimum elevation drop used for Conduit 13850.1
  WARNING 04: minimum elevation drop used for Conduit 13862.1
  WARNING 04: minimum elevation drop used for Conduit 13865.1
  WARNING 04: minimum elevation drop used for Conduit 13866.1
  WARNING 04: minimum elevation drop used for Conduit 13868.1
  WARNING 04: minimum elevation drop used for Conduit 13868.2
  WARNING 04: minimum elevation drop used for Conduit 13871.1
  WARNING 04: minimum elevation drop used for Conduit 13873.1
  WARNING 04: minimum elevation drop used for Conduit 13878.1
  WARNING 03: negative offset ignored for Link 13881.1
  WARNING 08: elevation drop exceeds length for Conduit 13881.1
  WARNING 03: negative offset ignored for Link 13890.1
  WARNING 08: elevation drop exceeds length for Conduit 13890.1
  WARNING 04: minimum elevation drop used for Conduit 13899.1
  WARNING 04: minimum elevation drop used for Conduit 13900.1
  WARNING 04: minimum elevation drop used for Conduit 13901.1
  WARNING 04: minimum elevation drop used for Conduit 13902.1
  WARNING 04: minimum elevation drop used for Conduit 13907.1
  WARNING 03: negative offset ignored for Link 13908.1
  WARNING 08: elevation drop exceeds length for Conduit 13908.1
  WARNING 04: minimum elevation drop used for Conduit 13909.1
  WARNING 04: minimum elevation drop used for Conduit 13910.1
  WARNING 03: negative offset ignored for Link 1392.1
  WARNING 03: negative offset ignored for Link 1392.1
  WARNING 04: minimum elevation drop used for Conduit 13930.1
  WARNING 04: minimum elevation drop used for Conduit 13931.1
  WARNING 03: negative offset ignored for Link 13990.1
  WARNING 04: minimum elevation drop used for Conduit 14012.1
  WARNING 04: minimum elevation drop used for Conduit 14013.1
  WARNING 04: minimum elevation drop used for Conduit 14014.1
  WARNING 04: minimum elevation drop used for Conduit 14025.1
  WARNING 04: minimum elevation drop used for Conduit 14027.1
  WARNING 04: minimum elevation drop used for Conduit 14028.1
  WARNING 04: minimum elevation drop used for Conduit 14029.1
  WARNING 04: minimum elevation drop used for Conduit 14030.1
  WARNING 04: minimum elevation drop used for Conduit 14031.1
  WARNING 04: minimum elevation drop used for Conduit 14032.1
  WARNING 04: minimum elevation drop used for Conduit 14033.1
  WARNING 03: negative offset ignored for Link 14034.1
  WARNING 08: elevation drop exceeds length for Conduit 14034.1
  WARNING 03: negative offset ignored for Link 14035.1
  WARNING 08: elevation drop exceeds length for Conduit 14035.1
  WARNING 04: minimum elevation drop used for Conduit 14038.1
  WARNING 04: minimum elevation drop used for Conduit 14039.1
  WARNING 04: minimum elevation drop used for Conduit 14040.1
  WARNING 04: minimum elevation drop used for Conduit 14041.1
  WARNING 04: minimum elevation drop used for Conduit 14042.1
  WARNING 03: negative offset ignored for Link 14071.1
  WARNING 08: elevation drop exceeds length for Conduit 14071.1
  WARNING 04: minimum elevation drop used for Conduit 14095.1
  WARNING 03: negative offset ignored for Link 14129.1
  WARNING 03: negative offset ignored for Link 14164.1
  WARNING 08: elevation drop exceeds length for Conduit 14164.1
  WARNING 04: minimum elevation drop used for Conduit 14166.1
  WARNING 03: negative offset ignored for Link 14181.1
  WARNING 08: elevation drop exceeds length for Conduit 14182.1
  WARNING 08: elevation drop exceeds length for Conduit 14184.1
  WARNING 08: elevation drop exceeds length for Conduit 14185.1
  WARNING 08: elevation drop exceeds length for Conduit 14186.1
  WARNING 04: minimum elevation drop used for Conduit 14196.2
  WARNING 08: elevation drop exceeds length for Conduit 14197.1
  WARNING 04: minimum elevation drop used for Conduit 14201.1
  WARNING 04: minimum elevation drop used for Conduit 14202.1
  WARNING 04: minimum elevation drop used for Conduit 14203.1
  WARNING 04: minimum elevation drop used for Conduit 14204.1
  WARNING 04: minimum elevation drop used for Conduit 14205.1
  WARNING 04: minimum elevation drop used for Conduit 14206.1
  WARNING 04: minimum elevation drop used for Conduit 14207.1
  WARNING 04: minimum elevation drop used for Conduit 14208.1
  WARNING 04: minimum elevation drop used for Conduit 14209.1
  WARNING 04: minimum elevation drop used for Conduit 14210.1
  WARNING 04: minimum elevation drop used for Conduit 14779.1
  WARNING 03: negative offset ignored for Link 14786.1
  WARNING 03: negative offset ignored for Link 14786.1
  WARNING 03: negative offset ignored for Link 14787.1
  WARNING 03: negative offset ignored for Link 14787.1
  WARNING 03: negative offset ignored for Link 14788.1
  WARNING 03: negative offset ignored for Link 14788.1
  WARNING 03: negative offset ignored for Link 14789.1
  WARNING 03: negative offset ignored for Link 14789.1
  WARNING 03: negative offset ignored for Link 14790.1
  WARNING 03: negative offset ignored for Link 14790.1
  WARNING 03: negative offset ignored for Link 14790.2
  WARNING 03: negative offset ignored for Link 14790.2
  WARNING 03: negative offset ignored for Link 14791.1
  WARNING 03: negative offset ignored for Link 14791.1
  WARNING 03: negative offset ignored for Link 14792.1
  WARNING 08: elevation drop exceeds length for Conduit 14792.1
  WARNING 03: negative offset ignored for Link 14793.1
  WARNING 03: negative offset ignored for Link 14793.1
  WARNING 03: negative offset ignored for Link 14794.1
  WARNING 03: negative offset ignored for Link 14794.1
  WARNING 03: negative offset ignored for Link 14794.2
  WARNING 03: negative offset ignored for Link 14794.2
  WARNING 03: negative offset ignored for Link 14795.1
  WARNING 03: negative offset ignored for Link 14795.1
  WARNING 03: negative offset ignored for Link 14796.1
  WARNING 08: elevation drop exceeds length for Conduit 14796.1
  WARNING 03: negative offset ignored for Link 14797.1
  WARNING 03: negative offset ignored for Link 14797.1
  WARNING 04: minimum elevation drop used for Conduit 14798.1
  WARNING 04: minimum elevation drop used for Conduit 14818.1
  WARNING 04: minimum elevation drop used for Conduit 14819.1
  WARNING 04: minimum elevation drop used for Conduit 14819.2
  WARNING 04: minimum elevation drop used for Conduit 14820.1
  WARNING 04: minimum elevation drop used for Conduit 14820.2
  WARNING 04: minimum elevation drop used for Conduit 14821.1
  WARNING 04: minimum elevation drop used for Conduit 14822.1
  WARNING 04: minimum elevation drop used for Conduit 14823.1
  WARNING 04: minimum elevation drop used for Conduit 14824.1
  WARNING 04: minimum elevation drop used for Conduit 14825.1
  WARNING 04: minimum elevation drop used for Conduit 14825.2
  WARNING 04: minimum elevation drop used for Conduit 14826.1
  WARNING 04: minimum elevation drop used for Conduit 14827.1
  WARNING 04: minimum elevation drop used for Conduit 14828.1
  WARNING 04: minimum elevation drop used for Conduit 14829.1
  WARNING 04: minimum elevation drop used for Conduit 14830.1
  WARNING 04: minimum elevation drop used for Conduit 14831.1
  WARNING 04: minimum elevation drop used for Conduit 14831.2
  WARNING 04: minimum elevation drop used for Conduit 14832.1
  WARNING 04: minimum elevation drop used for Conduit 14833.1
  WARNING 04: minimum elevation drop used for Conduit 14833.2
  WARNING 04: minimum elevation drop used for Conduit 14834.1
  WARNING 04: minimum elevation drop used for Conduit 14835.1
  WARNING 04: minimum elevation drop used for Conduit 14836.1
  WARNING 04: minimum elevation drop used for Conduit 14837.1
  WARNING 04: minimum elevation drop used for Conduit 14840.1
  WARNING 04: minimum elevation drop used for Conduit 14841.1
  WARNING 04: minimum elevation drop used for Conduit 14842.1
  WARNING 04: minimum elevation drop used for Conduit 14843.1
  WARNING 04: minimum elevation drop used for Conduit 14844.1
  WARNING 04: minimum elevation drop used for Conduit 14845.1
  WARNING 04: minimum elevation drop used for Conduit 14846.1
  WARNING 04: minimum elevation drop used for Conduit 14847.1
  WARNING 04: minimum elevation drop used for Conduit 14848.1
  WARNING 04: minimum elevation drop used for Conduit 14849.1
  WARNING 04: minimum elevation drop used for Conduit 14849.2
  WARNING 03: negative offset ignored for Link 1485.1
  WARNING 03: negative offset ignored for Link 1485.1
  WARNING 04: minimum elevation drop used for Conduit 14850.1
  WARNING 04: minimum elevation drop used for Conduit 14851.1
  WARNING 04: minimum elevation drop used for Conduit 14852.1
  WARNING 04: minimum elevation drop used for Conduit 14853.1
  WARNING 03: negative offset ignored for Link 14854.1
  WARNING 08: elevation drop exceeds length for Conduit 14854.1
  WARNING 04: minimum elevation drop used for Conduit 14854.2
  WARNING 04: minimum elevation drop used for Conduit 14856.1
  WARNING 04: minimum elevation drop used for Conduit 14857.1
  WARNING 04: minimum elevation drop used for Conduit 14858.1
  WARNING 04: minimum elevation drop used for Conduit 14859.1
  WARNING 04: minimum elevation drop used for Conduit 14860.1
  WARNING 04: minimum elevation drop used for Conduit 14861.1
  WARNING 04: minimum elevation drop used for Conduit 14862.1
  WARNING 04: minimum elevation drop used for Conduit 14863.1
  WARNING 04: minimum elevation drop used for Conduit 14864.1
  WARNING 04: minimum elevation drop used for Conduit 14865.1
  WARNING 04: minimum elevation drop used for Conduit 14866.1
  WARNING 04: minimum elevation drop used for Conduit 14867.1
  WARNING 04: minimum elevation drop used for Conduit 14868.1
  WARNING 04: minimum elevation drop used for Conduit 14869.1
  WARNING 04: minimum elevation drop used for Conduit 14870.1
  WARNING 04: minimum elevation drop used for Conduit 14871.1
  WARNING 04: minimum elevation drop used for Conduit 14872.1
  WARNING 04: minimum elevation drop used for Conduit 14873.1
  WARNING 04: minimum elevation drop used for Conduit 14874.1
  WARNING 04: minimum elevation drop used for Conduit 14875.1
  WARNING 04: minimum elevation drop used for Conduit 14876.1
  WARNING 04: minimum elevation drop used for Conduit 14877.1
  WARNING 04: minimum elevation drop used for Conduit 14878.1
  WARNING 04: minimum elevation drop used for Conduit 14879.1
  WARNING 04: minimum elevation drop used for Conduit 14880.1
  WARNING 04: minimum elevation drop used for Conduit 14881.1
  WARNING 04: minimum elevation drop used for Conduit 14881.2
  WARNING 04: minimum elevation drop used for Conduit 14882.1
  WARNING 04: minimum elevation drop used for Conduit 14883.1
  WARNING 04: minimum elevation drop used for Conduit 14884.1
  WARNING 04: minimum elevation drop used for Conduit 14884.2
  WARNING 04: minimum elevation drop used for Conduit 14885.1
  WARNING 04: minimum elevation drop used for Conduit 14886.1
  WARNING 04: minimum elevation drop used for Conduit 14887.1
  WARNING 04: minimum elevation drop used for Conduit 14887.2
  WARNING 04: minimum elevation drop used for Conduit 14888.1
  WARNING 04: minimum elevation drop used for Conduit 14889.1
  WARNING 04: minimum elevation drop used for Conduit 14892.1
  WARNING 04: minimum elevation drop used for Conduit 14893.1
  WARNING 04: minimum elevation drop used for Conduit 14894.1
  WARNING 04: minimum elevation drop used for Conduit 14895.1
  WARNING 04: minimum elevation drop used for Conduit 14896.1
  WARNING 04: minimum elevation drop used for Conduit 14897.1
  WARNING 04: minimum elevation drop used for Conduit 14897.2
  WARNING 04: minimum elevation drop used for Conduit 14898.1
  WARNING 04: minimum elevation drop used for Conduit 14899.1
  WARNING 04: minimum elevation drop used for Conduit 14900.1
  WARNING 04: minimum elevation drop used for Conduit 14901.1
  WARNING 04: minimum elevation drop used for Conduit 14901.2
  WARNING 04: minimum elevation drop used for Conduit 14902.1
  WARNING 04: minimum elevation drop used for Conduit 14903.1
  WARNING 04: minimum elevation drop used for Conduit 14904.1
  WARNING 04: minimum elevation drop used for Conduit 14905.1
  WARNING 04: minimum elevation drop used for Conduit 14905.2
  WARNING 04: minimum elevation drop used for Conduit 14906.1
  WARNING 04: minimum elevation drop used for Conduit 14907.1
  WARNING 04: minimum elevation drop used for Conduit 14908.1
  WARNING 04: minimum elevation drop used for Conduit 14909.1
  WARNING 04: minimum elevation drop used for Conduit 14910.1
  WARNING 04: minimum elevation drop used for Conduit 14911.1
  WARNING 04: minimum elevation drop used for Conduit 14912.1
  WARNING 04: minimum elevation drop used for Conduit 14913.1
  WARNING 04: minimum elevation drop used for Conduit 14914.1
  WARNING 04: minimum elevation drop used for Conduit 14915.1
  WARNING 04: minimum elevation drop used for Conduit 14916.1
  WARNING 04: minimum elevation drop used for Conduit 14917.1
  WARNING 04: minimum elevation drop used for Conduit 14918.1
  WARNING 04: minimum elevation drop used for Conduit 14919.1
  WARNING 04: minimum elevation drop used for Conduit 14920.1
  WARNING 04: minimum elevation drop used for Conduit 14921.1
  WARNING 04: minimum elevation drop used for Conduit 14922.1
  WARNING 04: minimum elevation drop used for Conduit 14923.1
  WARNING 04: minimum elevation drop used for Conduit 14924.1
  WARNING 04: minimum elevation drop used for Conduit 14925.1
  WARNING 04: minimum elevation drop used for Conduit 14926.1
  WARNING 04: minimum elevation drop used for Conduit 14927.1
  WARNING 04: minimum elevation drop used for Conduit 14928.1
  WARNING 04: minimum elevation drop used for Conduit 14929.1
  WARNING 04: minimum elevation drop used for Conduit 14930.1
  WARNING 04: minimum elevation drop used for Conduit 14931.1
  WARNING 04: minimum elevation drop used for Conduit 14932.1
  WARNING 04: minimum elevation drop used for Conduit 14934.1
  WARNING 04: minimum elevation drop used for Conduit 14935.1
  WARNING 04: minimum elevation drop used for Conduit 14937.1
  WARNING 03: negative offset ignored for Link 14944.1
  WARNING 03: negative offset ignored for Link 14944.1
  WARNING 03: negative offset ignored for Link 14946.2
  WARNING 08: elevation drop exceeds length for Conduit 14946.2
  WARNING 03: negative offset ignored for Link 1499.1
  WARNING 03: negative offset ignored for Link 1499.1
  WARNING 04: minimum elevation drop used for Conduit 15009.1
  WARNING 04: minimum elevation drop used for Conduit 15010.1
  WARNING 04: minimum elevation drop used for Conduit 15011.1
  WARNING 04: minimum elevation drop used for Conduit 15011.2
  WARNING 04: minimum elevation drop used for Conduit 15012.1
  WARNING 04: minimum elevation drop used for Conduit 15013.1
  WARNING 03: negative offset ignored for Link 15014.1
  WARNING 08: elevation drop exceeds length for Conduit 15014.1
  WARNING 04: minimum elevation drop used for Conduit 15015.1
  WARNING 04: minimum elevation drop used for Conduit 15016.1
  WARNING 04: minimum elevation drop used for Conduit 15017.1
  WARNING 04: minimum elevation drop used for Conduit 15018.1
  WARNING 04: minimum elevation drop used for Conduit 15019.1
  WARNING 04: minimum elevation drop used for Conduit 15020.1
  WARNING 04: minimum elevation drop used for Conduit 15021.1
  WARNING 04: minimum elevation drop used for Conduit 15022.1
  WARNING 03: negative offset ignored for Link 15023.1
  WARNING 08: elevation drop exceeds length for Conduit 15023.1
  WARNING 04: minimum elevation drop used for Conduit 15024.1
  WARNING 04: minimum elevation drop used for Conduit 15025.1
  WARNING 04: minimum elevation drop used for Conduit 15026.1
  WARNING 04: minimum elevation drop used for Conduit 15027.1
  WARNING 03: negative offset ignored for Link 15028.1
  WARNING 08: elevation drop exceeds length for Conduit 15028.1
  WARNING 04: minimum elevation drop used for Conduit 15029.1
  WARNING 04: minimum elevation drop used for Conduit 15030.1
  WARNING 04: minimum elevation drop used for Conduit 15031.1
  WARNING 04: minimum elevation drop used for Conduit 15032.1
  WARNING 04: minimum elevation drop used for Conduit 15033.1
  WARNING 03: negative offset ignored for Link 15034.1
  WARNING 08: elevation drop exceeds length for Conduit 15034.1
  WARNING 03: negative offset ignored for Link 15035.1
  WARNING 08: elevation drop exceeds length for Conduit 15035.1
  WARNING 04: minimum elevation drop used for Conduit 15036.1
  WARNING 04: minimum elevation drop used for Conduit 15037.1
  WARNING 04: minimum elevation drop used for Conduit 15038.1
  WARNING 04: minimum elevation drop used for Conduit 15039.1
  WARNING 04: minimum elevation drop used for Conduit 15041.1
  WARNING 04: minimum elevation drop used for Conduit 15042.1
  WARNING 04: minimum elevation drop used for Conduit 15043.1
  WARNING 04: minimum elevation drop used for Conduit 15044.1
  WARNING 04: minimum elevation drop used for Conduit 15045.1
  WARNING 04: minimum elevation drop used for Conduit 15046.1
  WARNING 04: minimum elevation drop used for Conduit 15047.1
  WARNING 04: minimum elevation drop used for Conduit 15048.1
  WARNING 04: minimum elevation drop used for Conduit 15049.1
  WARNING 04: minimum elevation drop used for Conduit 15050.1
  WARNING 04: minimum elevation drop used for Conduit 15051.1
  WARNING 04: minimum elevation drop used for Conduit 15052.1
  WARNING 04: minimum elevation drop used for Conduit 15054.1
  WARNING 04: minimum elevation drop used for Conduit 15055.1
  WARNING 04: minimum elevation drop used for Conduit 15056.1
  WARNING 04: minimum elevation drop used for Conduit 15057.1
  WARNING 04: minimum elevation drop used for Conduit 15058.1
  WARNING 04: minimum elevation drop used for Conduit 15059.1
  WARNING 04: minimum elevation drop used for Conduit 15060.1
  WARNING 04: minimum elevation drop used for Conduit 15061.1
  WARNING 04: minimum elevation drop used for Conduit 15062.1
  WARNING 04: minimum elevation drop used for Conduit 15063.1
  WARNING 04: minimum elevation drop used for Conduit 15064.1
  WARNING 04: minimum elevation drop used for Conduit 15065.1
  WARNING 04: minimum elevation drop used for Conduit 15066.1
  WARNING 04: minimum elevation drop used for Conduit 15067.1
  WARNING 04: minimum elevation drop used for Conduit 15068.1
  WARNING 04: minimum elevation drop used for Conduit 15069.1
  WARNING 04: minimum elevation drop used for Conduit 15070.1
  WARNING 04: minimum elevation drop used for Conduit 15071.1
  WARNING 04: minimum elevation drop used for Conduit 15072.1
  WARNING 04: minimum elevation drop used for Conduit 15073.1
  WARNING 04: minimum elevation drop used for Conduit 15074.1
  WARNING 04: minimum elevation drop used for Conduit 15075.1
  WARNING 04: minimum elevation drop used for Conduit 15076.1
  WARNING 03: negative offset ignored for Link 15078.1
  WARNING 08: elevation drop exceeds length for Conduit 15078.1
  WARNING 04: minimum elevation drop used for Conduit 15083.1
  WARNING 04: minimum elevation drop used for Conduit 15084.1
  WARNING 04: minimum elevation drop used for Conduit 15085.1
  WARNING 04: minimum elevation drop used for Conduit 15086.1
  WARNING 04: minimum elevation drop used for Conduit 15087.1
  WARNING 04: minimum elevation drop used for Conduit 15088.1
  WARNING 04: minimum elevation drop used for Conduit 15089.1
  WARNING 04: minimum elevation drop used for Conduit 15089.2
  WARNING 04: minimum elevation drop used for Conduit 15090.1
  WARNING 04: minimum elevation drop used for Conduit 15091.1
  WARNING 04: minimum elevation drop used for Conduit 15092.1
  WARNING 04: minimum elevation drop used for Conduit 15093.1
  WARNING 04: minimum elevation drop used for Conduit 15094.1
  WARNING 04: minimum elevation drop used for Conduit 15095.1
  WARNING 04: minimum elevation drop used for Conduit 15096.1
  WARNING 04: minimum elevation drop used for Conduit 15097.1
  WARNING 04: minimum elevation drop used for Conduit 15098.1
  WARNING 04: minimum elevation drop used for Conduit 15099.1
  WARNING 04: minimum elevation drop used for Conduit 15100.1
  WARNING 04: minimum elevation drop used for Conduit 15101.1
  WARNING 04: minimum elevation drop used for Conduit 15102.1
  WARNING 04: minimum elevation drop used for Conduit 15103.1
  WARNING 04: minimum elevation drop used for Conduit 15104.1
  WARNING 04: minimum elevation drop used for Conduit 15105.1
  WARNING 04: minimum elevation drop used for Conduit 15106.1
  WARNING 04: minimum elevation drop used for Conduit 15107.1
  WARNING 04: minimum elevation drop used for Conduit 15108.1
  WARNING 04: minimum elevation drop used for Conduit 15109.1
  WARNING 04: minimum elevation drop used for Conduit 15109.2
  WARNING 04: minimum elevation drop used for Conduit 15110.1
  WARNING 04: minimum elevation drop used for Conduit 15111.1
  WARNING 04: minimum elevation drop used for Conduit 15112.1
  WARNING 04: minimum elevation drop used for Conduit 15113.1
  WARNING 04: minimum elevation drop used for Conduit 15115.1
  WARNING 04: minimum elevation drop used for Conduit 15116.1
  WARNING 04: minimum elevation drop used for Conduit 15117.1
  WARNING 04: minimum elevation drop used for Conduit 15118.1
  WARNING 04: minimum elevation drop used for Conduit 15119.1
  WARNING 04: minimum elevation drop used for Conduit 15120.1
  WARNING 04: minimum elevation drop used for Conduit 15121.1
  WARNING 04: minimum elevation drop used for Conduit 15122.1
  WARNING 04: minimum elevation drop used for Conduit 15123.1
[...]
  7434.1                      0.01      1.99      0.01      0.01         0.01
  7460.1                      1.99      2.00      1.99      0.01         0.01
  7461.1                      0.04      0.04      2.00      0.04         0.04
  7467.2                      1.99      2.00      1.99      0.01         0.01
  7470.1                      0.01      2.00      0.01      1.99         0.01
  7471.1                      0.01      0.01      1.99      0.01         0.01
  7472.1                      1.99      1.99      2.00      0.01         0.01
  7473.1                      1.00      1.00      2.00      0.01         0.01
  7474.1                      0.01      2.00      0.01      0.01         0.01
  7475.1                      0.01      0.01      1.99      0.01         0.01
  7476.1                      1.99      2.00      1.99      0.01         0.01
  7477.1                      2.00      2.00      2.00      0.01         0.01
  7478.1                      0.01      0.01      2.00      0.01         0.01
  7478.2                      0.01      0.01      2.00      0.01         0.01
  7480.1                      0.01      1.99      0.01      0.01         0.01
  7481.1                      0.04      2.00      0.04      1.96         0.01
  7482.1                      0.04      0.04      2.00      0.01         0.03
  7483.1                      2.00      2.00      2.00      0.96         1.13
  7484.1                      2.00      2.00      2.00      0.84         0.92
  7485.1                      2.00      2.00      2.00      1.96         2.00
  7489.1                      2.00      2.00      2.00      2.00         2.00
  7490.1                      2.00      2.00      2.00      0.12         0.01
  7491.1                      2.00      2.00      2.00      0.01         0.01
  7492.1                      1.99      2.00      1.99      0.01         0.01
  7493.1                      0.01      2.00      0.01      1.99         0.01
  7494.1                      2.00      2.00      2.00      0.01         0.14
  7495.1                      0.01      0.01      2.00      0.01         0.01
  7496.1                      0.01      0.01      2.00      0.01         0.01
  7497.1                      0.01      0.01      2.00      0.01         0.01
  7498.1                      0.01      1.99      0.01      0.01         0.01
  7499.1                      1.99      1.99      1.99      0.01         0.01
  7500.1                      0.01      0.01      2.00      0.01         0.01
  7501.1                      2.00      2.00      2.00      0.01         0.01
  7501.2                      2.00      2.00      2.00      1.48         0.01
  7502.1                      2.00      2.00      2.00      0.01         0.01
  7504.1                      1.99      1.99      2.00      0.01         0.01
  7505.1                      2.00      2.00      2.00      0.01         0.05
  7506.1                      0.03      2.00      0.03      1.94         0.01
  7507.1                      0.02      0.03      2.00      0.02         0.02
  7508.1                      2.00      2.00      2.00      0.01         0.02
  7509.1                      2.00      2.00      2.00      0.01         0.01
  7510.1                      1.99      2.00      1.99      0.01         0.01
  7511.1                      2.00      2.00      2.00      0.01         0.01
  7512.1                      2.00      2.00      2.00      0.01         0.01
  7513.1                      2.00      2.00      2.00      0.01         0.01
  7514.1                      1.99      2.00      1.99      0.01         0.01
  7515.1                      1.00      1.00      2.00      0.01         0.01
  7516.1                      0.03      2.00      0.03      1.97         0.01
  7517.1                      1.99      2.00      1.99      0.01         0.01
  7518.1                      1.99      1.99      1.99      0.01         0.01
  7519.1                      2.00      2.00      2.00      0.01         0.01
  7520.1                      0.99      0.99      2.00      0.01         0.01
  7521.1                      0.01      1.99      0.01      1.98         0.01
  7522.1                      0.01      0.01      1.98      0.01         0.01
  7523.1                      1.88      1.99      1.88      0.01         0.01
  7524.1                      1.97      1.98      1.97      0.01         0.01
  7525.1                      1.00      1.00      2.00      0.01         0.01
  7526.1                      1.00      1.00      2.00      0.01         0.01
  7527.1                      0.01      0.01      1.99      0.01         0.01
  7528.1                      0.01      0.01      2.00      0.01         0.01
  7529.2                      0.01      0.01      2.00      0.01         0.01
  7530.1                      2.00      2.00      2.00      0.01         0.01
  7531.1                      2.00      2.00      2.00      1.69         1.80
  7532.1                      2.00      2.00      2.00      0.01         0.01
  7534.1                      1.93      1.93      1.94      0.32         0.01
  7536.1                      0.01      2.00      0.01      1.99         0.01
  7537.1                      2.00      2.00      2.00      0.01         0.01
  7548.1                      1.00      1.00      1.00      0.01         0.01
  7550.1                      1.00      1.00      2.00      0.01         0.01
  7552.1                      1.00      1.00      2.00      0.01         0.01
  7553.1                      1.99      2.00      1.99      0.01         0.01
  7554.1                      2.00      2.00      2.00      0.01         0.01
  7555.1                      2.00      2.00      2.00      0.01         0.01
  7556.1                      1.99      2.00      1.99      0.01         0.01
  7557.1                      2.00      2.00      2.00      1.94         1.98
  7558.1                      2.00      2.00      2.00      0.01         0.01
  7559.1                      2.00      2.00      2.00      1.69         2.00
  7560.1                      2.00      2.00      2.00      2.00         2.00
  7561.1                      0.01      0.01      2.00      0.01         0.01
  7562.1                      2.00      2.00      2.00      0.21         0.32
  7563.1                      2.00      2.00      2.00      0.09         0.68
  7564.1                      2.00      2.00      2.00      0.01         0.01
  7565.1                      2.00      2.00      2.00      0.01         0.01
  7566.1                      2.00      2.00      2.00      1.97         2.00
  7567.1                      0.01      2.00      0.01      1.99         0.01
  7640.1                      0.01      0.01      1.98      0.01         0.01
  7645.1                      2.00      2.00      2.00      0.01         0.01
  7649.1                      0.01      1.98      0.01      1.97         0.01
  7651.1                      1.98      1.98      2.00      0.01         0.01
  7652.1                      2.00      2.00      2.00      0.02         0.01
  7655.1                      1.98      1.98      1.98      0.01         0.01
  7657.1                      0.01      0.01      2.00      0.01         0.01
  7671.1                      0.01      2.00      0.01      1.99         0.01
  7673.1                      2.00      2.00      2.00      0.01         0.01
  7680.1                      2.00      2.00      2.00      0.01         0.01
  7681.1                      2.00      2.00      2.00      0.54         0.72
  7682.1                      2.00      2.00      2.00      0.41         0.68
  7683.1                      2.00      2.00      2.00      0.29         0.36
  7683.2                      2.00      2.00      2.00      0.33         0.41
  7684.1                      0.49      0.52      1.89      0.43         0.01
  7685.1                      0.52      1.92      0.52      0.28         0.01
  7686.2                      0.44      0.44      2.00      0.42         0.01
  7687.1                      1.92      2.00      1.92      0.28         0.01
  7688.1                      0.42      1.94      0.44      0.57         0.01
  7689.1                      2.00      2.00      2.00      2.00         2.00
  7690.1                      2.00      2.00      2.00      1.99         1.83
  7691.1                      2.00      2.00      2.00      0.27         0.32
  7691.2                      2.00      2.00      2.00      0.01         0.01
  7692.1                      0.04      0.04      2.00      0.17         0.04
  7693.1                      0.04      2.00      0.04      1.97         0.02
  7694.1                      0.04      2.00      0.04      1.99         0.04
  7695.1                      2.00      2.00      2.00      1.72         1.90
  7696.1                      0.01      1.99      0.01      1.99         0.01
  7698.1                      0.01      0.01      2.00      0.01         0.01
  7698.2                      0.01      0.01      0.99      0.01         0.01
  7699.1                      1.00      1.00      2.00      0.01         0.01
  7700.1                      0.01      0.01      0.01      0.01         0.01
  7701.1                      0.01      0.01      1.00      0.01         0.01
  7702.1                      0.08      0.08      2.00      0.01         0.01
  7703.1                      1.99      2.00      1.99      0.01         0.01
  7704.1                      1.99      1.99      1.99      0.01         0.01
  7705.1                      0.01      0.01      1.99      0.01         0.01
  7706.1                      1.99      2.00      1.99      0.01         0.01
  7707.1                      1.99      1.99      1.99      0.01         0.01
  7708.1                      0.99      0.99      2.00      0.01         0.99
  7709.1                      2.00      2.00      2.00      0.01         0.01
  7710.1                      0.01      0.01      1.98      0.01         0.01
  7711.1                      0.01      1.98      0.01      1.98         0.01
  7712.1                      0.99      1.00      1.99      0.01         0.01
  7713.1                      2.00      2.00      2.00      0.01         0.01
  7714.1                      1.98      1.99      1.98      0.01         0.01
  7715.1                      1.99      2.00      1.99      0.01         0.01
  7716.1                      2.00      2.00      2.00      0.01         0.01
  7717.1                      2.00      2.00      2.00      0.01         0.01
  7718.1                      2.00      2.00      2.00      0.01         0.01
  7719.1                      2.00      2.00      2.00      0.01         0.21
  7720.1                      1.65      1.65      2.00      1.65         0.01
  7721.1                      1.65      2.00      1.65      1.92         1.58
  7722.1                      2.00      2.00      2.00      1.36         1.41
  7723.1                      2.00      2.00      2.00      1.77         1.92
  7724.1                      2.00      2.00      2.00      0.01         0.01
  7725.1                      2.00      2.00      2.00      0.01         0.01
  7726.1                      2.00      2.00      2.00      0.01         0.03
  7727.1                      2.00      2.00      2.00      1.43         1.53
  7728.1                      0.01      0.01      2.00      0.25         0.01
  7753.1                      1.98      1.98      1.99      0.01         0.01
  7754.1                      0.01      0.01      2.00      0.01         0.01
  8580.1                      0.01      0.01      1.24      0.01         0.01
  8589.1                      0.07      0.07      1.24      0.01         0.01
  8589.2                      0.07      0.07      1.24      0.01         0.01
  8591.1                      0.07      1.24      0.07      0.09         0.01
  8656.1                      0.19      0.19      0.19      0.42         0.01
  8675.1                      1.94      1.94      1.95      0.36         0.01
  8729.1                      1.87      1.87      1.87      1.95         1.87
  8733.1                      0.01      0.01      1.87      0.01         0.01
  8747.1                      0.02      0.02      0.07      0.12         0.01
  8748.1                      0.01      0.01      0.03      1.84         0.01
  8748.2                      0.01      0.01      0.02      0.05         0.01
  8749.1                      0.01      0.04      0.01      1.35         0.01
  8750.1                      0.07      0.08      0.14      1.39         0.01
  8750.2                      0.04      0.08      0.04      0.73         0.01
  8751.1                      0.04      0.19      0.04      0.12         0.01
  8751.2                      0.19      0.19      0.19      0.80         0.01
  8752.1                      0.20      0.20      0.20      0.85         0.01
  8798.1                      0.01      0.01      1.65      0.01         0.01
  8811.1                      0.08      0.19      0.08      0.87         0.01
  8812.1                      0.04      0.12      0.04      1.71         0.01
  8813.1                      0.03      0.04      0.12      1.60         0.01
  8816.1                      0.19      0.19      0.19      1.34         0.01
  8818.1                      0.19      0.19      0.19      0.16         0.01
  8842.1                      0.01      0.01      0.01      1.99         0.01
  8849.1                      0.01      0.01      1.98      0.01         0.01
  8850.1                      0.01      1.98      0.01      1.98         0.01
  8860.1                      0.01      0.01      1.96      0.01         0.01
  8863.1                      1.96      1.96      1.96      0.19         0.01
  8864.1                      0.01      1.94      0.01      1.95         0.01
  8877.1                      0.01      0.01      0.01      0.96         0.01
  8878.1                      0.01      0.01      1.96      0.01         0.01
  8881.1                      1.58      1.58      1.99      0.01         0.01
  8881.2                      0.01      1.58      0.01      1.79         0.01
  8882.1                      0.01      0.01      1.58      0.01         0.01
  8883.1                      0.01      0.01      1.99      0.01         0.01
  8884.1                      0.01      1.99      0.01      1.99         0.01
  8885.1                      1.99      2.00      1.99      1.99         0.01
  8886.1                      2.00      2.00      2.00      1.98         0.01
  8887.1                      1.99      2.00      1.99      1.79         1.99
  8888.1                      2.00      2.00      2.00      0.01         1.30
  8890.1                      0.01      0.01      1.99      0.01         0.01
  8891.1                      2.00      2.00      2.00      0.01         0.02
  8892.1                      0.01      0.01      1.99      0.01         0.01
  8893.1                      2.00      2.00      2.00      0.01         0.02
  8894.1                      1.99      2.00      1.99      0.01         0.01
  8895.1                      1.99      1.99      1.99      1.99         1.99
  8896.1                      1.99      1.99      1.99      2.00         0.01
  8897.1                      0.01      0.01      2.00      0.09         0.01
  8898.1                      0.01      0.01      2.00      0.01         0.01
  8899.1                      1.99      2.00      1.99      0.01         0.01
  8900.1                      2.00      2.00      2.00      1.73         2.00
  8901.1                      2.00      2.00      2.00      0.01         0.01
  8902.1                      1.99      1.99      1.99      1.74         1.83
  8903.1                      1.99      1.99      1.99      0.01         0.01
  8904.1                      1.98      1.98      1.99      1.99         0.01
  8905.1                      1.99      1.99      1.99      1.96         1.99
  8906.1                      1.99      1.99      1.99      1.88         0.24
  8907.1                      1.99      1.99      1.99      0.01         0.01
  8908.1                      1.99      1.99      2.00      0.86         1.32
  8909.1                      1.99      1.99      1.99      1.22         1.34
  8910.1                      1.98      1.98      1.99      0.47         0.35
  8911.1                      1.97      1.97      1.97      0.82         0.34
  8911.2                      1.97      1.97      1.98      2.00         0.01
  8912.1                      1.97      1.97      1.97      1.16         0.40
  8913.1                      0.01      1.99      0.01      1.98         0.01
  8915.1                      1.99      1.99      1.99      0.01         0.01
  8916.1                      1.99      1.99      1.99      1.96         1.98
  8917.1                      1.99      2.00      1.99      1.24         1.64
  8919.1                      0.01      0.01      1.98      0.01         0.01
  8920.1                      0.01      0.01      1.99      0.01         0.01
  8921.1                      0.01      1.99      0.01      1.99         0.01
  8922.1                      0.01      1.99      0.01      1.99         0.01
  8923.1                      1.99      1.99      1.99      0.01         0.01
  8924.1                      0.01      0.01      1.99      0.01         0.01
  8925.1                      0.01      0.01      2.00      0.01         0.01
  8928.1                      0.01      0.01      1.99      0.01         0.01
  8929.1                      1.99      1.99      2.00      0.01         0.01
  8931.1                      1.97      1.97      1.98      1.97         0.05
  8932.1                      1.98      1.98      1.98      1.98         1.80
  8933.1                      1.99      2.00      1.99      0.01         0.02
  8934.1                      1.99      2.00      1.99      0.01         0.01
  8940.4                      0.01      0.01      0.01      0.01         0.01
  8941.2                      0.01      0.01      0.01      1.99         0.01
  8942.2                      0.01      0.01      0.01      1.97         0.01
  8951.1                      0.01      0.01      0.01      1.98         0.01
  8952.1                      0.01      0.01      0.01      1.98         0.01
  8953.1                      0.01      0.01      0.01      1.98         0.01
  8956.1                      0.01      0.01      0.01      1.96         0.01
  8957.1                      0.01      0.01      0.01      1.94         0.01
  8958.1                      0.01      0.01      1.92      0.01         0.01
  8975.2                      0.01      0.01      0.01      1.90         0.01
  8981.1                      0.01      2.00      0.01      0.01         0.01
  9104.1                      2.00      2.00      2.00      2.00         2.00
  9105.1                      0.01      0.01      1.93      0.01         0.01
  9111.1                      1.94      2.00      1.94      0.27         0.01
  9112.1                      2.00      2.00      2.00      0.34         0.01
  9114.1                      2.00      2.00      2.00      2.00         2.00
  9116.1                      2.00      2.00      2.00      0.01         0.01
  9121.1                      0.02      0.02      0.08      1.28         0.01
  9123.1                      1.96      1.96      1.96      0.58         0.01
  9134.1                      1.94      1.94      1.94      0.35         0.01
  9135.1                      0.01      0.01      2.00      0.01         0.01
  9136.1                      1.94      1.94      1.94      0.03         0.01
  9137.1                      0.37      1.94      0.37      0.44         0.01
  9138.1                      0.37      0.37      1.94      0.37         0.01
  9149.1                      2.00      2.00      2.00      2.00         0.04
  newmh1.1                    0.01      0.01      1.84      0.01         0.01
  

  Analysis begun on:  Wed Jan 02 10:03:45 2019
  Analysis ended on:  Wed Jan 02 10:04:51 2019
  Total elapsed time: 00:01:06