
  EPA STORM WATER MANAGEMENT MODEL - VERSION 5.1 (Build 5.1.013)
  --------------------------------------------------------------

  Subbasin..... inverted siphon.... Open channel..... 
  wet well .... 3 pumps .... Force main.... Gravity pipe ...... 
  detention pond.... Perforated riser outlet 
  
  
  ERROR 134: Node 1 has illegal DUMMY link connections.
  
  ERROR 134: Node 1 has illegal DUMMY link connections.
  
  ERROR 134: Node 1 has illegal DUMMY link connections.
  
  ERROR 145: Drainage system has no acceptable outlet nodes.
  
  *********************************************************
  NOTE: The summary statistics displayed in this report are
  based on results found at every computational time step,  
  not just on results from each reporting time step.
  *********************************************************
  
  ****************
  Analysis Options
  ****************
  Flow Units ............... CFS
  Process Models:
    Rainfall/Runoff ........ NO
    RDII ................... NO
    Snowmelt ............... NO
    Groundwater ............ NO
    Flow Routing ........... YES
    Ponding Allowed ........ NO
    Water Quality .......... NO
  Flow Routing Method ...... DYNWAVE
  Surcharge Method ......... EXTRAN
  Starting Date ............ 01/31/2009 00:00:00
  Ending Date .............. 01/31/2009 12:00:00
  Antecedent Dry Days ...... 0.0
  Report Time Step ......... 00:15:00
  Routing Time Step ........ 30.00 sec
  Variable Time Step ....... YES
  Maximum Trials ........... 8
  Number of Threads ........ 1
  Head Tolerance ........... 0.005000 ft
  

  Analysis begun on:  Wed Jan 02 10:04:52 2019
  Analysis ended on:  Wed Jan 02 10:04:52 2019
  Total elapsed time: < 1 sec