
  EPA STORM WATER MANAGEMENT MODEL - VERSION 5.1 (Build 5.1.013)
  --------------------------------------------------------------

  
  *************
  Element Count
  *************
  Number of rain gages ...... 0
  Number of subcatchments ... 0
  Number of nodes ........... 4
  Number of links ........... 6
  Number of pollutants ...... 0
  Number of land uses ....... 0
  
  
  ************
  Node Summary
  ************
                                           Invert      Max.    Ponded    External
  Name                 Type                 Elev.     Depth      Area    Inflow  
  -------------------------------------------------------------------------------
  Inlet                JUNCTION            105.00      5.00       0.0    Yes
  StreamOutfall        OUTFALL              99.00      3.00       0.0
  Pond                 STORAGE             100.00     10.00       0.0
  Box                  STORAGE             100.00     10.00       0.0
  
  
  ************
  Link Summary
  ************
  Name             From Node        To Node          Type            Length    %Slope Roughness
  ---------------------------------------------------------------------------------------------
  LinkOut          Box              StreamOutfall    CONDUIT          400.0    0.2500    0.0130
  LinkIn           Inlet            Pond             CONDUIT          400.0    1.2501    0.0130
  Orifice1         Pond             Box              ORIFICE     
  Orifice2         Pond             Box              ORIFICE     
  LargeOrifice     Pond             Box              ORIFICE     
  Weir             Pond             Box              WEIR        
  
  
  *********************
  Cross Section Summary
  *********************
                                        Full     Full     Hyd.     Max.   No. of     Full
  Conduit          Shape               Depth     Area     Rad.    Width  Barrels     Flow
  ---------------------------------------------------------------------------------------
  LinkOut          CIRCULAR             3.00     7.07     0.75     3.00        1    33.35
  LinkIn           CIRCULAR             3.00     7.07     0.75     3.00        3    74.57
  
  
  
  *********************************************************
  NOTE: The summary statistics displayed in this report are
  based on results found at every computational time step,  
  not just on results from each reporting time step.
  *********************************************************
  
  ****************
  Analysis Options
  ****************
  Flow Units ............... CFS
  Process Models:
    Rainfall/Runoff ........ NO
    RDII ................... NO
    Snowmelt ............... NO
    Groundwater ............ NO
    Flow Routing ........... YES
    Ponding Allowed ........ NO
    Water Quality .......... NO
  Flow Routing Method ...... DYNWAVE
  Surcharge Method ......... EXTRAN
  Starting Date ............ 06/12/2011 00:00:00
  Ending Date .............. 06/13/2011 12:00:00
  Antecedent Dry Days ...... 0.0
  Report Time Step ......... 00:01:00
  Routing Time Step ........ 30.00 sec
  Variable Time Step ....... YES
  Maximum Trials ........... 8
  Number of Threads ........ 1
  Head Tolerance ........... 0.005000 ft
  
  
  *********************
  Control Actions Taken
  *********************

  
  **************************        Volume        Volume
  Flow Routing Continuity        acre-feet      10^6 gal
  **************************     ---------     ---------
  Dry Weather Inflow .......         0.000         0.000
  Wet Weather Inflow .......         0.000         0.000
  Groundwater Inflow .......         0.000         0.000
  RDII Inflow ..............         0.000         0.000
  External Inflow ..........        19.820         6.459
  External Outflow .........        15.903         5.182
  Flooding Loss ............         0.000         0.000
  Evaporation Loss .........         0.048         0.015
  Exfiltration Loss ........         4.549         1.482
  Initial Stored Volume ....         1.935         0.631
  Final Stored Volume ......         1.278         0.417
  Continuity Error (%) .....        -0.106
  
  
  ***************************
  Time-Step Critical Elements
  ***************************
  Link LinkOut (21.52%)
  
  
  ********************************
  Highest Flow Instability Indexes
  ********************************
  All links are stable.
  
  
  *************************
  Routing Time Step Summary
  *************************
  Minimum Time Step           :     0.27 sec
  Average Time Step           :    29.66 sec
  Maximum Time Step           :    30.00 sec
  Percent in Steady State     :     0.00
  Average Iterations per Step :     2.00
  Percent Not Converging      :     0.00
  
  
  ******************
  Node Depth Summary
  ******************
  
  ---------------------------------------------------------------------------------
                                 Average  Maximum  Maximum  Time of Max    Reported
                                   Depth    Depth      HGL   Occurrence   Max Depth
  Node                 Type         Feet     Feet     Feet  days hr:min        Feet
  ---------------------------------------------------------------------------------
  Inlet                JUNCTION     0.40     1.28   106.28     0  13:20        1.28
  StreamOutfall        OUTFALL      0.55     1.28   100.28     0  13:22        1.28
  Pond                 STORAGE      4.73     6.26   106.26     0  13:21        6.26
  Box                  STORAGE      0.64     1.50   101.50     0  13:21        1.50
  
  
  *******************
  Node Inflow Summary
  *******************
  
  -------------------------------------------------------------------------------------------------
                                  Maximum  Maximum                  Lateral       Total        Flow
                                  Lateral    Total  Time of Max      Inflow      Inflow     Balance
                                   Inflow   Inflow   Occurrence      Volume      Volume       Error
  Node                 Type           CFS      CFS  days hr:min    10^6 gal    10^6 gal     Percent
  -------------------------------------------------------------------------------------------------
  Inlet                JUNCTION     20.00    20.00     0  12:00        6.46        6.46      -0.004
  StreamOutfall        OUTFALL       0.00    16.00     0  13:22           0        5.18       0.000
  Pond                 STORAGE       0.00    19.90     0  12:00           0        7.06      -0.103
  Box                  STORAGE       0.00    16.00     0  13:21           0        5.18      -0.000
  
  
  **********************
  Node Surcharge Summary
  **********************
  
  No nodes were surcharged.
  
  
  *********************
  Node Flooding Summary
  *********************
  
  No nodes were flooded.
  
  
  **********************
  Storage Volume Summary
  **********************
  
  --------------------------------------------------------------------------------------------------
                         Average     Avg  Evap Exfil       Maximum     Max    Time of Max    Maximum
                          Volume    Pcnt  Pcnt  Pcnt        Volume    Pcnt     Occurrence    Outflow
  Storage Unit          1000 ft3    Full  Loss  Loss      1000 ft3    Full    days hr:min        CFS
  --------------------------------------------------------------------------------------------------
  Pond                   115.131      31     0    19       188.293      50       0  13:21     294.88
  Box                      0.003       6     0     0         0.007      15       0  13:21      16.00
  
  
  ***********************
  Outfall Loading Summary
  ***********************
  
  -----------------------------------------------------------
                         Flow       Avg       Max       Total
                         Freq      Flow      Flow      Volume
  Outfall Node           Pcnt       CFS       CFS    10^6 gal
  -----------------------------------------------------------
  StreamOutfall         67.93      8.02     16.00       5.182
  -----------------------------------------------------------
  System                67.93      8.02     16.00       5.182
  
  
  ********************
  Link Flow Summary
  ********************
  
  -----------------------------------------------------------------------------
                                 Maximum  Time of Max   Maximum    Max/    Max/
                                  |Flow|   Occurrence   |Veloc|    Full    Full
  Link                 Type          CFS  days hr:min    ft/sec    Flow   Depth
  -----------------------------------------------------------------------------
  LinkOut              CONDUIT     16.00     0  13:22      5.01    0.48    0.46
  LinkIn               CONDUIT     19.90     0  12:00      1.27    0.09    0.71
  Orifice1             ORIFICE      1.91     0  13:21                      1.00
  Orifice2             ORIFICE      1.91     0  13:21                      1.00
  LargeOrifice         ORIFICE     11.73     0  13:21                      1.00
  Weir                 WEIR         0.45     0  13:21                      0.26
  
  
  ***************************
  Flow Classification Summary
  ***************************
  
  -------------------------------------------------------------------------------------
                      Adjusted    ---------- Fraction of Time in Flow Class ---------- 
                       /Actual         Up    Down  Sub   Sup   Up    Down  Norm  Inlet 
  Conduit               Length    Dry  Dry   Dry   Crit  Crit  Crit  Crit  Ltd   Ctrl  
  -------------------------------------------------------------------------------------
  LinkOut                 1.00   0.09  0.00  0.00  0.90  0.01  0.00  0.00  0.00  0.00
  LinkIn                  1.00   0.00  0.26  0.00  0.74  0.00  0.00  0.00  0.72  0.00
  
  
  *************************
  Conduit Surcharge Summary
  *************************
  
  ----------------------------------------------------------------------------
                                                           Hours        Hours 
                         --------- Hours Full --------   Above Full   Capacity
  Conduit                Both Ends  Upstream  Dnstream   Normal Flow   Limited
  ----------------------------------------------------------------------------
  LinkIn                      0.01      0.01     35.99      0.01         0.01
  

  Analysis begun on:  Wed Jan 02 10:13:04 2019
  Analysis ended on:  Wed Jan 02 10:13:06 2019
  Total elapsed time: 00:00:02