
  EPA STORM WATER MANAGEMENT MODEL - VERSION 5.1 (Build 5.1.013)
  --------------------------------------------------------------

  
  ERROR 211: invalid number  at line 2607 of [XSECT] section:
  M09100.2         RECT_OPEN    0.000000         9.000000   0.000000   0.000000  

  
  ERROR 211: invalid number  at line 2608 of [XSECT] section:
  rack-16.1        RECT_OPEN    0.000000         10.000000  0.000000   0.000000  

  
  ERROR 211: invalid number  at line 2609 of [XSECT] section:
  Rack-17.2        RECT_OPEN    0.000000         12.000000  0.000000   0.000000  

  
  ERROR 211: invalid number  at line 2610 of [XSECT] section:
  Rack_10.2        RECT_OPEN    0.000000         2.000000   0.000000   0.000000  

  
  ERROR 209: undefined object MONTHLY_POP_1 at line 3354 of [DWF] section:
  10               FLOW             201        "MONTHLY_POP_1" "HOURLY_POP_1" "WEEKEND_POP_1"

  
  ERROR 209: undefined object MONTHLY_POP_1 at line 3355 of [DWF] section:
  1020-31          FLOW             77         "MONTHLY_POP_1" "HOURLY_POP_1" "WEEKEND_POP_1"

  
  ERROR 209: undefined object MONTHLY_POP_1 at line 3356 of [DWF] section:
  1021-08A         FLOW             385        "MONTHLY_POP_1" "HOURLY_POP_1" "WEEKEND_POP_1"

  
  ERROR 209: undefined object MONTHLY_POP_1 at line 3357 of [DWF] section:
  1021-08B         FLOW             86         "MONTHLY_POP_1" "HOURLY_POP_1" "WEEKEND_POP_1"

  
  ERROR 209: undefined object MONTHLY_POP_1 at line 3358 of [DWF] section:
  1021-08C         FLOW             56         "MONTHLY_POP_1" "HOURLY_POP_1" "WEEKEND_POP_1"

  
  ERROR 209: undefined object MONTHLY_POP_1 at line 3359 of [DWF] section:
  1021-08D         FLOW             38         "MONTHLY_POP_1" "HOURLY_POP_1" "WEEKEND_POP_1"

  
  ERROR 209: undefined object MONTHLY_POP_1 at line 3360 of [DWF] section:
  1074_15          FLOW             73         "MONTHLY_POP_1" "HOURLY_POP_1" "WEEKEND_POP_1"

  
  ERROR 209: undefined object MONTHLY_POP_1 at line 3361 of [DWF] section:
  11               FLOW             381        "MONTHLY_POP_1" "HOURLY_POP_1" "WEEKEND_POP_1"

  
  ERROR 209: undefined object MONTHLY_POP_1 at line 3362 of [DWF] section:
  1172-21          FLOW             245        "MONTHLY_POP_1" "HOURLY_POP_1" "WEEKEND_POP_1"

  
  ERROR 209: undefined object MONTHLY_POP_1 at line 3363 of [DWF] section:
  1172-22A         FLOW             48         "MONTHLY_POP_1" "HOURLY_POP_1" "WEEKEND_POP_1"

  
  ERROR 209: undefined object MONTHLY_POP_1 at line 3364 of [DWF] section:
  1172-22B         FLOW             155        "MONTHLY_POP_1" "HOURLY_POP_1" "WEEKEND_POP_1"

  
  ERROR 209: undefined object MONTHLY_POP_1 at line 3365 of [DWF] section:
  1172-22C         FLOW             110        "MONTHLY_POP_1" "HOURLY_POP_1" "WEEKEND_POP_1"

  
  ERROR 209: undefined object MONTHLY_POP_1 at line 3366 of [DWF] section:
  1172-22D         FLOW             21         "MONTHLY_POP_1" "HOURLY_POP_1" "WEEKEND_POP_1"

  
  ERROR 209: undefined object MONTHLY_POP_1 at line 3367 of [DWF] section:
  1172-22E         FLOW             29         "MONTHLY_POP_1" "HOURLY_POP_1" "WEEKEND_POP_1"

  
  ERROR 209: undefined object MONTHLY_POP_1 at line 3368 of [DWF] section:
  1172-22F         FLOW             129        "MONTHLY_POP_1" "HOURLY_POP_1" "WEEKEND_POP_1"

  
  ERROR 209: undefined object MONTHLY_POP_1 at line 3369 of [DWF] section:
  1174-32A         FLOW             65         "MONTHLY_POP_1" "HOURLY_POP_1" "WEEKEND_POP_1"

  
  ERROR 209: undefined object MONTHLY_POP_1 at line 3370 of [DWF] section:
  1174-32C         FLOW             36         "MONTHLY_POP_1" "HOURLY_POP_1" "WEEKEND_POP_1"

  
  ERROR 209: undefined object MONTHLY_POP_1 at line 3371 of [DWF] section:
  12               FLOW             952        "MONTHLY_POP_1" "HOURLY_POP_1" "WEEKEND_POP_1"

  
  ERROR 209: undefined object MONTHLY_POP_1 at line 3372 of [DWF] section:
  1224-19A         FLOW             140        "MONTHLY_POP_1" "HOURLY_POP_1" "WEEKEND_POP_1"

  
  ERROR 209: undefined object MONTHLY_POP_1 at line 3373 of [DWF] section:
  1224-19B         FLOW             109        "MONTHLY_POP_1" "HOURLY_POP_1" "WEEKEND_POP_1"

  
  ERROR 209: undefined object MONTHLY_POP_1 at line 3374 of [DWF] section:
  13               FLOW             65         "MONTHLY_POP_1" "HOURLY_POP_1" "WEEKEND_POP_1"

  
  ERROR 209: undefined object MONTHLY_POP_1 at line 3375 of [DWF] section:
  14               FLOW             240        "MONTHLY_POP_1" "HOURLY_POP_1" "WEEKEND_POP_1"

  
  ERROR 209: undefined object MONTHLY_POP_1 at line 3376 of [DWF] section:
  1433             FLOW             4          "MONTHLY_POP_1" "HOURLY_POP_1" "WEEKEND_POP_1"

  
  ERROR 209: undefined object MONTHLY_POP_1 at line 3377 of [DWF] section:
  2                FLOW             525        "MONTHLY_POP_1" "HOURLY_POP_1" "WEEKEND_POP_1"

  
  ERROR 209: undefined object MONTHLY_POP_1 at line 3378 of [DWF] section:
  21               FLOW             42         "MONTHLY_POP_1" "HOURLY_POP_1" "WEEKEND_POP_1"

  
  ERROR 209: undefined object MONTHLY_POP_1 at line 3379 of [DWF] section:
  2101             FLOW             174        "MONTHLY_POP_1" "HOURLY_POP_1" "WEEKEND_POP_1"

  
  ERROR 209: undefined object MONTHLY_POP_1 at line 3380 of [DWF] section:
  22               FLOW             436        "MONTHLY_POP_1" "HOURLY_POP_1" "WEEKEND_POP_1"

  
  ERROR 209: undefined object MONTHLY_POP_1 at line 3381 of [DWF] section:
  25               FLOW             58         "MONTHLY_POP_1" "HOURLY_POP_1" "WEEKEND_POP_1"

  
  ERROR 209: undefined object MONTHLY_POP_1 at line 3382 of [DWF] section:
  26               FLOW             160        "MONTHLY_POP_1" "HOURLY_POP_1" "WEEKEND_POP_1"

  
  ERROR 209: undefined object MONTHLY_POP_1 at line 3383 of [DWF] section:
  27               FLOW             97         "MONTHLY_POP_1" "HOURLY_POP_1" "WEEKEND_POP_1"

  
  ERROR 209: undefined object MONTHLY_POP_1 at line 3384 of [DWF] section:
  28               FLOW             304        "MONTHLY_POP_1" "HOURLY_POP_1" "WEEKEND_POP_1"

  
  ERROR 209: undefined object MONTHLY_POP_1 at line 3385 of [DWF] section:
  281220           FLOW             55         "MONTHLY_POP_1" "HOURLY_POP_1" "WEEKEND_POP_1"

  
  ERROR 209: undefined object MONTHLY_POP_1 at line 3386 of [DWF] section:
  281231           FLOW             31         "MONTHLY_POP_1" "HOURLY_POP_1" "WEEKEND_POP_1"

  
  ERROR 209: undefined object MONTHLY_POP_1 at line 3387 of [DWF] section:
  29               FLOW             138        "MONTHLY_POP_1" "HOURLY_POP_1" "WEEKEND_POP_1"

  
  ERROR 209: undefined object MONTHLY_POP_1 at line 3388 of [DWF] section:
  290791           FLOW             146        "MONTHLY_POP_1" "HOURLY_POP_1" "WEEKEND_POP_1"

  
  ERROR 209: undefined object MONTHLY_POP_1 at line 3389 of [DWF] section:
  299185           FLOW             151        "MONTHLY_POP_1" "HOURLY_POP_1" "WEEKEND_POP_1"

  
  ERROR 209: undefined object MONTHLY_POP_1 at line 3390 of [DWF] section:
  299198           FLOW             58         "MONTHLY_POP_1" "HOURLY_POP_1" "WEEKEND_POP_1"

  
  ERROR 209: undefined object MONTHLY_POP_1 at line 3391 of [DWF] section:
  299203           FLOW             35         "MONTHLY_POP_1" "HOURLY_POP_1" "WEEKEND_POP_1"

  
  ERROR 209: undefined object MONTHLY_POP_1 at line 3392 of [DWF] section:
  299375           FLOW             10         "MONTHLY_POP_1" "HOURLY_POP_1" "WEEKEND_POP_1"

  
  ERROR 209: undefined object MONTHLY_POP_1 at line 3393 of [DWF] section:
  299390           FLOW             37         "MONTHLY_POP_1" "HOURLY_POP_1" "WEEKEND_POP_1"

  
  ERROR 209: undefined object MONTHLY_POP_1 at line 3394 of [DWF] section:
  3                FLOW             342        "MONTHLY_POP_1" "HOURLY_POP_1" "WEEKEND_POP_1"

  
  ERROR 209: undefined object MONTHLY_POP_1 at line 3395 of [DWF] section:
  30               FLOW             491        "MONTHLY_POP_1" "HOURLY_POP_1" "WEEKEND_POP_1"

  
  ERROR 209: undefined object MONTHLY_POP_1 at line 3396 of [DWF] section:
  302106           FLOW             261        "MONTHLY_POP_1" "HOURLY_POP_1" "WEEKEND_POP_1"

  
  ERROR 209: undefined object MONTHLY_POP_1 at line 3397 of [DWF] section:
  303269           FLOW             61         "MONTHLY_POP_1" "HOURLY_POP_1" "WEEKEND_POP_1"

  
  ERROR 209: undefined object MONTHLY_POP_1 at line 3398 of [DWF] section:
  303337           FLOW             10         "MONTHLY_POP_1" "HOURLY_POP_1" "WEEKEND_POP_1"

  
  ERROR 209: undefined object MONTHLY_POP_1 at line 3399 of [DWF] section:
  303341           FLOW             18         "MONTHLY_POP_1" "HOURLY_POP_1" "WEEKEND_POP_1"

  
  ERROR 209: undefined object MONTHLY_POP_1 at line 3400 of [DWF] section:
  303344           FLOW             25         "MONTHLY_POP_1" "HOURLY_POP_1" "WEEKEND_POP_1"

  
  ERROR 209: undefined object MONTHLY_POP_1 at line 3401 of [DWF] section:
  303416           FLOW             152        "MONTHLY_POP_1" "HOURLY_POP_1" "WEEKEND_POP_1"

  
  ERROR 209: undefined object MONTHLY_POP_1 at line 3402 of [DWF] section:
  303465           FLOW             33         "MONTHLY_POP_1" "HOURLY_POP_1" "WEEKEND_POP_1"

  
  ERROR 209: undefined object MONTHLY_POP_1 at line 3403 of [DWF] section:
  303470           FLOW             45         "MONTHLY_POP_1" "HOURLY_POP_1" "WEEKEND_POP_1"

  
  ERROR 209: undefined object MONTHLY_POP_1 at line 3404 of [DWF] section:
  303473           FLOW             2585       "MONTHLY_POP_1" "HOURLY_POP_1" "WEEKEND_POP_1"

  
  ERROR 209: undefined object MONTHLY_POP_1 at line 3405 of [DWF] section:
  303478           FLOW             24         "MONTHLY_POP_1" "HOURLY_POP_1" "WEEKEND_POP_1"

  
  ERROR 209: undefined object MONTHLY_POP_1 at line 3406 of [DWF] section:
  303645           FLOW             111        "MONTHLY_POP_1" "HOURLY_POP_1" "WEEKEND_POP_1"

  
  ERROR 209: undefined object MONTHLY_POP_1 at line 3407 of [DWF] section:
  303677           FLOW             145        "MONTHLY_POP_1" "HOURLY_POP_1" "WEEKEND_POP_1"

  
  ERROR 209: undefined object MONTHLY_POP_1 at line 3408 of [DWF] section:
  303969           FLOW             63         "MONTHLY_POP_1" "HOURLY_POP_1" "WEEKEND_POP_1"

  
  ERROR 209: undefined object MONTHLY_POP_1 at line 3409 of [DWF] section:
  303973           FLOW             92         "MONTHLY_POP_1" "HOURLY_POP_1" "WEEKEND_POP_1"

  
  ERROR 209: undefined object MONTHLY_POP_1 at line 3410 of [DWF] section:
  31               FLOW             309        "MONTHLY_POP_1" "HOURLY_POP_1" "WEEKEND_POP_1"

  
  ERROR 209: undefined object MONTHLY_POP_1 at line 3411 of [DWF] section:
  33               FLOW             48         "MONTHLY_POP_1" "HOURLY_POP_1" "WEEKEND_POP_1"

  
  ERROR 209: undefined object MONTHLY_POP_1 at line 3412 of [DWF] section:
  34               FLOW             83         "MONTHLY_POP_1" "HOURLY_POP_1" "WEEKEND_POP_1"

  
  ERROR 209: undefined object MONTHLY_POP_1 at line 3413 of [DWF] section:
  35               FLOW             90         "MONTHLY_POP_1" "HOURLY_POP_1" "WEEKEND_POP_1"

  
  ERROR 209: undefined object MONTHLY_POP_1 at line 3414 of [DWF] section:
  36               FLOW             189        "MONTHLY_POP_1" "HOURLY_POP_1" "WEEKEND_POP_1"

  
  ERROR 209: undefined object MONTHLY_POP_1 at line 3415 of [DWF] section:
  38-MH1           FLOW             1470       "MONTHLY_POP_1" "HOURLY_POP_1" "WEEKEND_POP_1"

  
  ERROR 209: undefined object MONTHLY_POP_1 at line 3416 of [DWF] section:
  491              FLOW             84         "MONTHLY_POP_1" "HOURLY_POP_1" "WEEKEND_POP_1"

  
  ERROR 209: undefined object MONTHLY_POP_1 at line 3417 of [DWF] section:
  5                FLOW             95         "MONTHLY_POP_1" "HOURLY_POP_1" "WEEKEND_POP_1"

  
  ERROR 209: undefined object MONTHLY_POP_1 at line 3418 of [DWF] section:
  522164           FLOW             56         "MONTHLY_POP_1" "HOURLY_POP_1" "WEEKEND_POP_1"

  
  ERROR 209: undefined object MONTHLY_POP_1 at line 3419 of [DWF] section:
  522365           FLOW             496        "MONTHLY_POP_1" "HOURLY_POP_1" "WEEKEND_POP_1"

  
  ERROR 209: undefined object MONTHLY_POP_1 at line 3420 of [DWF] section:
  6                FLOW             28         "MONTHLY_POP_1" "HOURLY_POP_1" "WEEKEND_POP_1"

  
  ERROR 209: undefined object MONTHLY_POP_1 at line 3421 of [DWF] section:
  687              FLOW             743        "MONTHLY_POP_1" "HOURLY_POP_1" "WEEKEND_POP_1"

  
  ERROR 209: undefined object MONTHLY_POP_1 at line 3422 of [DWF] section:
  7                FLOW             112        "MONTHLY_POP_1" "HOURLY_POP_1" "WEEKEND_POP_1"

  
  ERROR 209: undefined object MONTHLY_POP_1 at line 3423 of [DWF] section:
  731845           FLOW             33         "MONTHLY_POP_1" "HOURLY_POP_1" "WEEKEND_POP_1"

  
  ERROR 209: undefined object MONTHLY_POP_1 at line 3424 of [DWF] section:
  740742           FLOW             232        "MONTHLY_POP_1" "HOURLY_POP_1" "WEEKEND_POP_1"

  
  ERROR 209: undefined object MONTHLY_POP_1 at line 3425 of [DWF] section:
  8                FLOW             78         "MONTHLY_POP_1" "HOURLY_POP_1" "WEEKEND_POP_1"

  
  ERROR 209: undefined object MONTHLY_POP_1 at line 3426 of [DWF] section:
  874-13           FLOW             230        "MONTHLY_POP_1" "HOURLY_POP_1" "WEEKEND_POP_1"

  
  ERROR 209: undefined object MONTHLY_POP_1 at line 3427 of [DWF] section:
  9                FLOW             39         "MONTHLY_POP_1" "HOURLY_POP_1" "WEEKEND_POP_1"

  
  ERROR 209: undefined object MONTHLY_POP_1 at line 3428 of [DWF] section:
  926-19A          FLOW             275        "MONTHLY_POP_1" "HOURLY_POP_1" "WEEKEND_POP_1"

  
  ERROR 209: undefined object MONTHLY_POP_1 at line 3429 of [DWF] section:
  926-19B          FLOW             442        "MONTHLY_POP_1" "HOURLY_POP_1" "WEEKEND_POP_1"

  
  ERROR 209: undefined object MONTHLY_POP_1 at line 3430 of [DWF] section:
  974-19A          FLOW             14         "MONTHLY_POP_1" "HOURLY_POP_1" "WEEKEND_POP_1"

  
  ERROR 209: undefined object MONTHLY_POP_1 at line 3431 of [DWF] section:
  974-19B          FLOW             56         "MONTHLY_POP_1" "HOURLY_POP_1" "WEEKEND_POP_1"

  
  ERROR 209: undefined object MONTHLY_POP_1 at line 3432 of [DWF] section:
  974-19C          FLOW             81         "MONTHLY_POP_1" "HOURLY_POP_1" "WEEKEND_POP_1"

  
  ERROR 209: undefined object MONTHLY_POP_1 at line 3433 of [DWF] section:
  974-19D          FLOW             78         "MONTHLY_POP_1" "HOURLY_POP_1" "WEEKEND_POP_1"

  
  ERROR 209: undefined object MONTHLY_POP_1 at line 3434 of [DWF] section:
  974-19E          FLOW             82         "MONTHLY_POP_1" "HOURLY_POP_1" "WEEKEND_POP_1"

  
  ERROR 209: undefined object MONTHLY_POP_1 at line 3435 of [DWF] section:
  974-19Faaa       FLOW             167        "MONTHLY_POP_1" "HOURLY_POP_1" "WEEKEND_POP_1"

  
  ERROR 209: undefined object MONTHLY_POP_1 at line 3436 of [DWF] section:
  Babb             FLOW             446        "MONTHLY_POP_1" "HOURLY_POP_1" "WEEKEND_POP_1"

  
  ERROR 209: undefined object MONTHLY_POP_1 at line 3437 of [DWF] section:
  CBI              FLOW             4821       "MONTHLY_POP_1" "HOURLY_POP_1" "WEEKEND_POP_1"

  
  ERROR 209: undefined object MONTHLY_POP_1 at line 3438 of [DWF] section:
  COMB84MH6        FLOW             7755       "MONTHLY_POP_1" "HOURLY_POP_1" "WEEKEND_POP_1"

  
  ERROR 209: undefined object MONTHLY_POP_1 at line 3439 of [DWF] section:
  EASTWOOD         FLOW             110        "MONTHLY_POP_1" "HOURLY_POP_1" "WEEKEND_POP_1"

  
  ERROR 209: undefined object MONTHLY_POP_1 at line 3440 of [DWF] section:
  HAWKINS          FLOW             3179       "MONTHLY_POP_1" "HOURLY_POP_1" "WEEKEND_POP_1"

  
  ERROR 209: undefined object MONTHLY_POP_1 at line 3441 of [DWF] section:
  LAKEMORE         FLOW             1161       "MONTHLY_POP_1" "HOURLY_POP_1" "WEEKEND_POP_1"

  
  ERROR 209: undefined object MONTHLY_POP_1 at line 3442 of [DWF] section:
  Main             FLOW             2730       "MONTHLY_POP_1" "HOURLY_POP_1" "WEEKEND_POP_1"

  
  ERROR 209: undefined object MONTHLY_POP_1 at line 3443 of [DWF] section:
  MUDBRK           FLOW             4770       "MONTHLY_POP_1" "HOURLY_POP_1" "WEEKEND_POP_1"

  
  ERROR 209: undefined object MONTHLY_POP_1 at line 3444 of [DWF] section:
  ROOSEVELT        FLOW             499        "MONTHLY_POP_1" "HOURLY_POP_1" "WEEKEND_POP_1"

  
  ERROR 209: undefined object MONTHLY_POP_1 at line 3445 of [DWF] section:
  SPRNGFLD         FLOW             401        "MONTHLY_POP_1" "HOURLY_POP_1" "WEEKEND_POP_1"

  
  ERROR 209: undefined object MONTHLY_POP_1 at line 3446 of [DWF] section:
  SRTI             FLOW             271        "MONTHLY_POP_1" "HOURLY_POP_1" "WEEKEND_POP_1"

  
  ERROR 209: undefined object MONTHLY_POP_1 at line 3447 of [DWF] section:
  T1               FLOW             2172       "MONTHLY_POP_1" "HOURLY_POP_1" "WEEKEND_POP_1"

  
  ERROR 209: undefined object MONTHLY_POP_1 at line 3448 of [DWF] section:
  T2               FLOW             4782       "MONTHLY_POP_1" "HOURLY_POP_1" "WEEKEND_POP_1"

  
  ERROR 209: undefined object MONTHLY_POP_1 at line 3449 of [DWF] section:
  TALLMDGE         FLOW             582        "MONTHLY_POP_1" "HOURLY_POP_1" "WEEKEND_POP_1"

  
  Maximum error count exceeded.

  Analysis begun on:  Wed Jan 02 10:13:07 2019
  Analysis ended on:  Wed Jan 02 10:13:07 2019
  Total elapsed time: < 1 sec