
  EPA STORM WATER MANAGEMENT MODEL - VERSION 5.1 (Build 5.1.013)
  --------------------------------------------------------------

  
  *********************************************************
  NOTE: The summary statistics displayed in this report are
  based on results found at every computational time step,  
  not just on results from each reporting time step.
  *********************************************************
  
  ****************
  Analysis Options
  ****************
  Flow Units ............... CMS
  Process Models:
    Rainfall/Runoff ........ NO
    RDII ................... NO
    Snowmelt ............... NO
    Groundwater ............ NO
    Flow Routing ........... YES
    Ponding Allowed ........ NO
    Water Quality .......... NO
  Flow Routing Method ...... DYNWAVE
  Surcharge Method ......... EXTRAN
  Starting Date ............ 01/01/2002 00:00:00
  Ending Date .............. 01/01/2002 08:00:00
  Antecedent Dry Days ...... 0.0
  Report Time Step ......... 00:01:00
  Routing Time Step ........ 60.00 sec
  Variable Time Step ....... YES
  Maximum Trials ........... 8
  Number of Threads ........ 1
  Head Tolerance ........... 0.001524 m
  
  
  **************************        Volume        Volume
  Flow Routing Continuity        hectare-m      10^6 ltr
  **************************     ---------     ---------
  Dry Weather Inflow .......         0.000         0.000
  Wet Weather Inflow .......         0.000         0.000
  Groundwater Inflow .......         0.000         0.000
  RDII Inflow ..............         0.000         0.000
  External Inflow ..........         3.027        30.269
  External Outflow .........         4.197        41.971
  Flooding Loss ............         0.000         0.000
  Evaporation Loss .........         0.000         0.000
  Exfiltration Loss ........         0.000         0.000
  Initial Stored Volume ....         1.369        13.688
  Final Stored Volume ......         0.012         0.122
  Continuity Error (%) .....         4.240
  
  
  *************************
  Highest Continuity Errors
  *************************
  Node 4 (-12.45%)
  Node 5 (-10.67%)
  
  
  ***************************
  Time-Step Critical Elements
  ***************************
  None
  
  
  ********************************
  Highest Flow Instability Indexes
  ********************************
  Link 4 (2)
  Link 2 (1)
  Link 3 (1)
  Link 1 (1)
  Link 5 (1)
  
  
  *************************
  Routing Time Step Summary
  *************************
  Minimum Time Step           :    59.50 sec
  Average Time Step           :    59.88 sec
  Maximum Time Step           :    60.00 sec
  Percent in Steady State     :     0.00
  Average Iterations per Step :     2.16
  Percent Not Converging      :     0.00
  
  
  ******************
  Node Depth Summary
  ******************
  
  ---------------------------------------------------------------------------------
                                 Average  Maximum  Maximum  Time of Max    Reported
                                   Depth    Depth      HGL   Occurrence   Max Depth
  Node                 Type       Meters   Meters   Meters  days hr:min      Meters
  ---------------------------------------------------------------------------------
  1                    JUNCTION     0.11     1.31     2.81     0  00:12        1.31
  2                    JUNCTION     0.10     0.72     2.22     0  00:20        0.72
  3                    JUNCTION     0.10     0.72     2.22     0  00:20        0.72
  4                    JUNCTION     0.13     0.90     2.10     0  00:16        0.90
  5                    JUNCTION     0.13     0.65     1.25     0  00:21        0.65
  6                    JUNCTION     0.05     0.60     1.50     0  00:00        0.49
  7                    OUTFALL      0.09     0.49     0.49     0  00:20        0.49
  
  
  *******************
  Node Inflow Summary
  *******************
  
  -------------------------------------------------------------------------------------------------
                                  Maximum  Maximum                  Lateral       Total        Flow
                                  Lateral    Total  Time of Max      Inflow      Inflow     Balance
                                   Inflow   Inflow   Occurrence      Volume      Volume       Error
  Node                 Type           CMS      CMS  days hr:min    10^6 ltr    10^6 ltr     Percent
  -------------------------------------------------------------------------------------------------
  1                    JUNCTION    11.992   11.992     0  00:11        15.7        15.7      -5.254
  2                    JUNCTION     2.000    2.000     0  00:00        7.26        7.26     -10.829
  3                    JUNCTION     2.000    2.000     0  00:00        7.26        7.26     -10.829
  4                    JUNCTION     0.000   14.560     0  00:12           0        32.9     -11.070
  5                    JUNCTION     0.000   12.119     0  00:17           0        38.3      -9.643
  6                    JUNCTION     0.000    0.704     0  00:18           0       0.404     -68.671
  7                    OUTFALL      0.000   10.708     0  00:20           0          42       0.000
  
  
  **********************
  Node Surcharge Summary
  **********************
  
  No nodes were surcharged.
  
  
  *********************
  Node Flooding Summary
  *********************
  
  No nodes were flooded.
  
  
  ***********************
  Outfall Loading Summary
  ***********************
  
  -----------------------------------------------------------
                         Flow       Avg       Max       Total
                         Freq      Flow      Flow      Volume
  Outfall Node           Pcnt       CMS       CMS    10^6 ltr
  -----------------------------------------------------------
  7                    100.00     1.462    10.708      41.974
  -----------------------------------------------------------
  System               100.00     1.462    10.708      41.974
  
  
  ********************
  Link Flow Summary
  ********************
  
  -----------------------------------------------------------------------------
                                 Maximum  Time of Max   Maximum    Max/    Max/
                                  |Flow|   Occurrence   |Veloc|    Full    Full
  Link                 Type          CMS  days hr:min     m/sec    Flow   Depth
  -----------------------------------------------------------------------------
  1                    CONDUIT    10.864     0  00:12      2.05    0.19    0.21
  2                    CONDUIT     2.278     0  00:24      0.67    0.06    0.16
  3                    CONDUIT     2.278     0  00:24      0.67    0.06    0.16
  4                    CONDUIT     2.996     0  00:00      1.00    0.05    0.12
  5                    CONDUIT    12.119     0  00:17      1.98    0.08    0.15
  6                    CONDUIT    10.708     0  00:20      1.88    0.05    0.11
  
  
  ***************************
  Flow Classification Summary
  ***************************
  
  -------------------------------------------------------------------------------------
                      Adjusted    ---------- Fraction of Time in Flow Class ---------- 
                       /Actual         Up    Down  Sub   Sup   Up    Down  Norm  Inlet 
  Conduit               Length    Dry  Dry   Dry   Crit  Crit  Crit  Crit  Ltd   Ctrl  
  -------------------------------------------------------------------------------------
  1                       1.00   0.00  0.00  0.00  1.00  0.00  0.00  0.00  0.88  0.00
  2                       1.00   0.00  0.00  0.00  1.00  0.00  0.00  0.00  0.88  0.00
  3                       1.00   0.00  0.00  0.00  1.00  0.00  0.00  0.00  0.88  0.00
  4                       1.00   0.00  0.00  0.00  1.00  0.00  0.00  0.00  0.85  0.00
  5                       1.00   0.00  0.00  0.00  1.00  0.00  0.00  0.00  0.86  0.00
  6                       1.00   0.00  0.00  0.00  1.00  0.00  0.00  0.00  0.00  0.00
  
  
  *************************
  Conduit Surcharge Summary
  *************************
  
  No conduits were surcharged.
  

  Analysis begun on:  Wed Jan 02 10:13:09 2019
  Analysis ended on:  Wed Jan 02 10:13:10 2019
  Total elapsed time: 00:00:01