
  EPA STORM WATER MANAGEMENT MODEL - VERSION 5.1 (Build 5.1.013)
  --------------------------------------------------------------

  Scenario Run :  BASE 
    Input and Output FilesSW 1 0 20 
   SW 1 0 20 
  
  WARNING 02: maximum depth increased for Node 16009
  WARNING 02: maximum depth increased for Node 16109
  WARNING 02: maximum depth increased for Node 82309
  WARNING 02: maximum depth increased for Node JCT-12
  WARNING 02: maximum depth increased for Node JCT-14
  
  *************
  Element Count
  *************
  Number of rain gages ...... 0
  Number of subcatchments ... 0
  Number of nodes ........... 15
  Number of links ........... 17
  Number of pollutants ...... 0
  Number of land uses ....... 0
  
  
  ************
  Node Summary
  ************
                                           Invert      Max.    Ponded    External
  Name                 Type                 Elev.     Depth      Area    Inflow  
  -------------------------------------------------------------------------------
  10309                JUNCTION            101.60      9.40       0.0
  15009                JUNCTION            111.50     13.50       0.0
  16009                JUNCTION            102.00      9.00       0.0
  16109                JUNCTION            102.80      6.00       0.0
  80408                JUNCTION            124.60      5.00       0.0    Yes
  80608                JUNCTION            118.30      5.00       0.0
  81009                JUNCTION            128.20      8.80       0.0    Yes
  81309                JUNCTION            117.50     12.50       0.0
  82309                JUNCTION            112.30      6.20       0.0    Yes
  JCT-10               JUNCTION            128.60      1.00       0.0
  JCT-12               JUNCTION            122.30      1.00       0.0
  JCT-14               JUNCTION            116.30      3.20       0.0
  JCT-16               JUNCTION            116.30      3.00       0.0
  JCT-18               JUNCTION            106.80      1.00       0.0
  10208                OUTFALL              89.90      9.00       0.0
  
  
  ************
  Link Summary
  ************
  Name             From Node        To Node          Type            Length    %Slope Roughness
  ---------------------------------------------------------------------------------------------
  1030             10309            10208            CONDUIT         4500.0    0.2600    0.0160
  1570             15009            16009            CONDUIT         5000.0    0.1900    0.0154
  1600             16009            16109            CONDUIT          500.0   -0.1600    0.0150
  1602             82309            16109            CONDUIT         5000.0    0.1900    0.0340
  1630             16009            10309            CONDUIT          300.0    0.1333    0.0150
  8040             80408            80608            CONDUIT         1800.0    0.3500    0.0150
  8060             80608            82309            CONDUIT         2075.0    0.1831    0.0150
  8100             81009            81309            CONDUIT         5100.0    0.2098    0.0150
  8130             81309            15009            CONDUIT         3500.0    0.1714    0.0150
  CDT-11           JCT-10           JCT-12           CONDUIT         1800.0    0.3500    0.0150
  CDT-13           JCT-12           JCT-14           CONDUIT         2075.0    0.1831    0.0150
  CDT-15           JCT-16           JCT-18           CONDUIT         5000.0    0.1900    0.0340
  OLET-13          80408            JCT-10           OUTLET      
  OLET-15          JCT-12           80608            OUTLET      
  OLET-17          80608            JCT-12           OUTLET      
  OLET-23          JCT-16           82309            OUTLET      
  OLET-27          JCT-18           16109            OUTLET      
  
  
  *********************
  Cross Section Summary
  *********************
                                        Full     Full     Hyd.     Max.   No. of     Full
  Conduit          Shape               Depth     Area     Rad.    Width  Barrels     Flow
  ---------------------------------------------------------------------------------------
  1030             TRIANGULAR           9.00   243.00     4.27    54.00        1  3028.41
  1570             CIRCULAR             5.50    23.76     1.38     5.50        1   123.56
  1600             CIRCULAR             6.00    28.27     1.50     6.00        1   146.82
  1602             CIRCULAR             5.00    19.63     1.25     5.00        1    43.41
  1630             TRIANGULAR           9.00   243.00     4.27    54.00        1  2313.27
  8040             CIRCULAR             4.00    12.57     1.00     4.00        1    73.65
  8060             CIRCULAR             4.00    12.57     1.00     4.00        1    53.27
  8100             CIRCULAR             4.50    15.90     1.13     4.50        1    78.06
  8130             CIRCULAR             4.50    15.90     1.13     4.50        1    70.56
  CDT-11           TRAPEZOIDAL          1.00    60.05     0.97    60.10        1   344.51
  CDT-13           TRAPEZOIDAL          1.00    60.05     0.97    60.10        1   249.20
  CDT-15           TRAPEZOIDAL          1.00    60.05     0.97    60.10        1   111.98
  
  
  
  *********************************************************
  NOTE: The summary statistics displayed in this report are
  based on results found at every computational time step,  
  not just on results from each reporting time step.
  *********************************************************
  
  ****************
  Analysis Options
  ****************
  Flow Units ............... CFS
  Process Models:
    Rainfall/Runoff ........ NO
    RDII ................... NO
    Snowmelt ............... NO
    Groundwater ............ NO
    Flow Routing ........... YES
    Ponding Allowed ........ NO
    Water Quality .......... NO
  Flow Routing Method ...... DYNWAVE
  Surcharge Method ......... EXTRAN
  Starting Date ............ 02/22/2002 00:00:00
  Ending Date .............. 02/22/2002 06:00:00
  Antecedent Dry Days ...... 0.0
  Report Time Step ......... 00:01:40
  Routing Time Step ........ 30.00 sec
  Variable Time Step ....... YES
  Maximum Trials ........... 8
  Number of Threads ........ 1
  Head Tolerance ........... 0.005000 ft
  
  
  **************************        Volume        Volume
  Flow Routing Continuity        acre-feet      10^6 gal
  **************************     ---------     ---------
  Dry Weather Inflow .......         0.000         0.000
  Wet Weather Inflow .......         0.000         0.000
  Groundwater Inflow .......         0.000         0.000
  RDII Inflow ..............         0.000         0.000
  External Inflow ..........        33.470        10.907
  External Outflow .........        24.751         8.065
  Flooding Loss ............         7.942         2.588
  Evaporation Loss .........         0.015         0.005
  Exfiltration Loss ........         0.000         0.000
  Initial Stored Volume ....         0.001         0.000
  Final Stored Volume ......         0.797         0.260
  Continuity Error (%) .....        -0.102
  
  
  *************************
  Highest Continuity Errors
  *************************
  Node JCT-18 (89.81%)
  Node 80608 (1.66%)
  
  
  ***************************
  Time-Step Critical Elements
  ***************************
  None
  
  
  ********************************
  Highest Flow Instability Indexes
  ********************************
  All links are stable.
  
  
  *************************
  Routing Time Step Summary
  *************************
  Minimum Time Step           :    29.50 sec
  Average Time Step           :    29.96 sec
  Maximum Time Step           :    30.00 sec
  Percent in Steady State     :     0.00
  Average Iterations per Step :     2.06
  Percent Not Converging      :     0.00
  
  
  ******************
  Node Depth Summary
  ******************
  
  ---------------------------------------------------------------------------------
                                 Average  Maximum  Maximum  Time of Max    Reported
                                   Depth    Depth      HGL   Occurrence   Max Depth
  Node                 Type         Feet     Feet     Feet  days hr:min        Feet
  ---------------------------------------------------------------------------------
  10309                JUNCTION     1.69     2.52   104.12     0  01:53        2.52
  15009                JUNCTION     1.44     2.45   113.95     0  01:34        2.45
  16009                JUNCTION     1.80     2.69   104.69     0  01:45        2.69
  16109                JUNCTION     1.52     2.37   105.17     0  01:54        2.37
  80408                JUNCTION     1.19     2.36   126.96     0  00:18        2.36
  80608                JUNCTION     1.54     2.82   121.12     0  03:00        2.82
  81009                JUNCTION     1.46     2.85   131.05     0  00:32        2.85
  81309                JUNCTION     1.71     3.10   120.60     0  01:00        3.10
  82309                JUNCTION     3.69     6.20   118.50     0  00:33        6.20
  JCT-10               JUNCTION     0.00     0.00   128.60     0  00:00        0.00
  JCT-12               JUNCTION     0.00     0.00   122.30     0  00:00        0.00
  JCT-14               JUNCTION     0.00     0.00   116.30     0  00:00        0.00
  JCT-16               JUNCTION     0.06     0.11   116.41     0  03:18        0.11
  JCT-18               JUNCTION     0.04     0.09   106.89     0  06:00        0.09
  10208                OUTFALL      1.50     2.29    92.19     0  01:54        2.29
  
  
  *******************
  Node Inflow Summary
  *******************
  
  -------------------------------------------------------------------------------------------------
                                  Maximum  Maximum                  Lateral       Total        Flow
                                  Lateral    Total  Time of Max      Inflow      Inflow     Balance
                                   Inflow   Inflow   Occurrence      Volume      Volume       Error
  Node                 Type           CFS      CFS  days hr:min    10^6 gal    10^6 gal     Percent
  -------------------------------------------------------------------------------------------------
  10309                JUNCTION      0.00    95.96     0  01:44           0         8.1       0.399
  15009                JUNCTION      0.00    51.07     0  01:13           0        4.04       0.377
  16009                JUNCTION      0.00    95.99     0  01:39           0        8.13       0.426
  16109                JUNCTION      0.00    45.65     0  03:10           0        4.13       0.000
  80408                JUNCTION     45.00    45.00     0  00:15        3.64        3.64      -0.178
  80608                JUNCTION      0.00    46.86     0  00:22           0        3.64       1.693
  81009                JUNCTION     50.00    50.00     0  00:15        4.04        4.04      -0.489
  81309                JUNCTION      0.00    53.88     0  00:40           0        4.06       0.411
  82309                JUNCTION     40.00    85.00     0  02:59        3.23        6.82      -0.712
  JCT-10               JUNCTION      0.00     0.00     0  00:00           0           0       0.000 gal
  JCT-12               JUNCTION      0.00     0.00     0  00:00           0           0       0.000 gal
  JCT-14               JUNCTION      0.00     0.00     0  00:00           0           0       0.000 gal
  JCT-16               JUNCTION      0.00     2.10     0  00:33           0       0.163      29.592
  JCT-18               JUNCTION      0.00     1.44     0  03:27           0       0.117     881.454
  10208                OUTFALL       0.00    95.88     0  01:54           0        8.06       0.000
  
  
  **********************
  Node Surcharge Summary
  **********************
  
  Surcharging occurs when water rises above the top of the highest conduit.
  ---------------------------------------------------------------------
                                               Max. Height   Min. Depth
                                   Hours       Above Crown    Below Rim
  Node                 Type      Surcharged           Feet         Feet
  ---------------------------------------------------------------------
  82309                JUNCTION        2.63          0.000        0.000
  
  
  *********************
  Node Flooding Summary
  *********************
  
  Flooding refers to all water that overflows a node, whether it ponds or not.
  --------------------------------------------------------------------------
                                                             Total   Maximum
                                 Maximum   Time of Max       Flood    Ponded
                        Hours       Rate    Occurrence      Volume     Depth
  Node                 Flooded       CFS   days hr:min    10^6 gal      Feet
  --------------------------------------------------------------------------
  82309                   2.63     40.52      0  00:33       2.588     0.000
  
  
  ***********************
  Outfall Loading Summary
  ***********************
  
  -----------------------------------------------------------
                         Flow       Avg       Max       Total
                         Freq      Flow      Flow      Volume
  Outfall Node           Pcnt       CFS       CFS    10^6 gal
  -----------------------------------------------------------
  10208                 92.09     54.13     95.88       8.065
  -----------------------------------------------------------
  System                92.09     54.13     95.88       8.065
  
  
  ********************
  Link Flow Summary
  ********************
  
  -----------------------------------------------------------------------------
                                 Maximum  Time of Max   Maximum    Max/    Max/
                                  |Flow|   Occurrence   |Veloc|    Full    Full
  Link                 Type          CFS  days hr:min    ft/sec    Flow   Depth
  -----------------------------------------------------------------------------
  1030                 CONDUIT     95.88     0  01:54      5.51    0.03    0.27
  1570                 CONDUIT     50.50     0  01:34      4.64    0.41    0.47
  1600                 CONDUIT     45.67     0  03:13      5.27    0.31    0.42
  1602                 CONDUIT     45.58     0  01:54      2.95    1.05    0.74
  1630                 CONDUIT     95.96     0  01:44      5.51    0.04    0.29
  8040                 CONDUIT     46.86     0  00:22      7.22    0.64    0.63
  8060                 CONDUIT     45.00     0  02:59      4.84    0.84    0.85
  8100                 CONDUIT     53.88     0  00:40      6.49    0.69    0.64
  8130                 CONDUIT     51.07     0  01:13      5.53    0.72    0.61
  CDT-11               CONDUIT      0.00     0  00:00      0.00    0.00    0.00
  CDT-13               CONDUIT      0.00     0  00:00      0.00    0.00    0.00
  CDT-15               CONDUIT      1.44     0  03:27      0.33    0.01    0.07
  OLET-13              DUMMY        0.00     0  00:00
  OLET-15              DUMMY        0.00     0  00:00
  OLET-17              DUMMY        0.00     0  00:00
  OLET-23              DUMMY        2.10     0  00:33
  OLET-27              DUMMY        0.19     0  06:00
  
  
  ***************************
  Flow Classification Summary
  ***************************
  
  -------------------------------------------------------------------------------------
                      Adjusted    ---------- Fraction of Time in Flow Class ---------- 
                       /Actual         Up    Down  Sub   Sup   Up    Down  Norm  Inlet 
  Conduit               Length    Dry  Dry   Dry   Crit  Crit  Crit  Crit  Ltd   Ctrl  
  -------------------------------------------------------------------------------------
  1030                    1.00   0.04  0.00  0.00  0.96  0.00  0.00  0.00  0.00  0.00
  1570                    1.00   0.00  0.00  0.00  1.00  0.00  0.00  0.00  0.94  0.00
  1600                    1.15   0.00  0.00  0.00  0.97  0.02  0.00  0.00  0.35  0.00
  1602                    1.00   0.00  0.00  0.00  1.00  0.00  0.00  0.00  0.00  0.00
  1630                    2.16   0.00  0.00  0.00  0.96  0.04  0.00  0.00  0.25  0.00
  8040                    1.00   0.00  0.00  0.00  0.96  0.04  0.00  0.00  0.94  0.00
  8060                    1.00   0.00  0.00  0.00  0.57  0.00  0.00  0.43  0.55  0.00
  8100                    1.00   0.00  0.00  0.00  0.96  0.04  0.00  0.00  0.89  0.00
  8130                    1.00   0.00  0.00  0.00  0.97  0.03  0.00  0.00  0.45  0.00
  CDT-11                  1.00   1.00  0.00  0.00  0.00  0.00  0.00  0.00  0.00  0.00
  CDT-13                  1.00   1.00  0.00  0.00  0.00  0.00  0.00  0.00  0.00  0.00
  CDT-15                  1.00   0.07  0.00  0.00  0.93  0.00  0.00  0.00  0.27  0.00
  
  
  *************************
  Conduit Surcharge Summary
  *************************
  
  ----------------------------------------------------------------------------
                                                           Hours        Hours 
                         --------- Hours Full --------   Above Full   Capacity
  Conduit                Both Ends  Upstream  Dnstream   Normal Flow   Limited
  ----------------------------------------------------------------------------
  1602                        0.01      2.89      0.01      2.71         0.01
  8060                        0.01      0.01      2.63      0.01         0.01
  

  Analysis begun on:  Wed Jan 02 08:53:48 2019
  Analysis ended on:  Wed Jan 02 08:53:49 2019
  Total elapsed time: 00:00:01