
  EPA STORM WATER MANAGEMENT MODEL - VERSION 5.1 (Build 5.1.013)
  --------------------------------------------------------------

  Example 1 of Extran Manual 
  
  
  *************
  Element Count
  *************
  Number of rain gages ...... 0
  Number of subcatchments ... 0
  Number of nodes ........... 10
  Number of links ........... 9
  Number of pollutants ...... 0
  Number of land uses ....... 0
  
  
  ************
  Node Summary
  ************
                                           Invert      Max.    Ponded    External
  Name                 Type                 Elev.     Depth      Area    Inflow  
  -------------------------------------------------------------------------------
  80408                JUNCTION            124.60     13.40       0.0    Yes
  80608                JUNCTION            118.30     16.70       0.0
  81009                JUNCTION            128.20      8.80       0.0    Yes
  81309                JUNCTION            117.50     12.50       0.0
  82309                JUNCTION            112.30     42.70       0.0    Yes
  10309                JUNCTION            101.60      9.40       0.0
  15009                JUNCTION            111.50     13.50       0.0
  16009                JUNCTION            102.00     18.00       0.0
  16109                JUNCTION            102.80     22.20       0.0
  10208                OUTFALL              89.90      1.00       0.0
  
  
  ************
  Link Summary
  ************
  Name             From Node        To Node          Type            Length    %Slope Roughness
  ---------------------------------------------------------------------------------------------
  8040             80408            80608            CONDUIT         1800.0    0.3500    0.0150
  8060             80608            82309            CONDUIT         2075.0    0.1831    0.0150
  8100             81009            81309            CONDUIT         5100.0    0.2098    0.0150
  8130             81309            15009            CONDUIT         3500.0    0.1714    0.0150
  1030             10309            10208            CONDUIT         4500.0    0.2600    0.0160
  1570             15009            16009            CONDUIT         5000.0    0.1900    0.0154
  1600             16109            16009            CONDUIT          500.0    0.1600    0.0150
  1630             16009            10309            CONDUIT          300.0    0.1333    0.0150
  1602             82309            16109            CONDUIT         5000.0    0.1900    0.0340
  
  
  *********************
  Cross Section Summary
  *********************
                                        Full     Full     Hyd.     Max.   No. of     Full
  Conduit          Shape               Depth     Area     Rad.    Width  Barrels     Flow
  ---------------------------------------------------------------------------------------
  8040             RECT_CLOSED          1.00     1.00     0.25     1.00        1     2.33
  8060             RECT_CLOSED          1.00     1.00     0.25     1.00        1     1.68
  8100             RECT_CLOSED          1.00     1.00     0.25     1.00        1     1.80
  8130             RECT_CLOSED          1.00     1.00     0.25     1.00        1     1.63
  1030             RECT_CLOSED          1.00     1.00     0.25     1.00        1     1.88
  1570             RECT_CLOSED          1.00     1.00     0.25     1.00        1     1.67
  1600             RECT_CLOSED          1.00     1.00     0.25     1.00        1     1.57
  1630             RECT_CLOSED          1.00     1.00     0.25     1.00        1     1.44
  1602             RECT_CLOSED          1.00     1.00     0.25     1.00        1     0.76
  
  
  
  *********************************************************
  NOTE: The summary statistics displayed in this report are
  based on results found at every computational time step,  
  not just on results from each reporting time step.
  *********************************************************
  
  ****************
  Analysis Options
  ****************
  Flow Units ............... CFS
  Process Models:
    Rainfall/Runoff ........ NO
    RDII ................... NO
    Snowmelt ............... NO
    Groundwater ............ NO
    Flow Routing ........... YES
    Ponding Allowed ........ NO
    Water Quality .......... NO
  Flow Routing Method ...... DYNWAVE
  Surcharge Method ......... EXTRAN
  Starting Date ............ 01/01/2002 00:00:00
  Ending Date .............. 01/01/2002 08:00:00
  Antecedent Dry Days ...... 0.0
  Report Time Step ......... 00:15:00
  Routing Time Step ........ 20.00 sec
  Variable Time Step ....... NO
  Maximum Trials ........... 8
  Number of Threads ........ 1
  Head Tolerance ........... 0.005000 ft
  
  
  *********************
  Control Actions Taken
  *********************

  
  **************************        Volume        Volume
  Flow Routing Continuity        acre-feet      10^6 gal
  **************************     ---------     ---------
  Dry Weather Inflow .......         0.000         0.000
  Wet Weather Inflow .......         0.000         0.000
  Groundwater Inflow .......         0.000         0.000
  RDII Inflow ..............         0.000         0.000
  External Inflow ..........        33.470        10.907
  External Outflow .........         0.978         0.319
  Flooding Loss ............        32.409        10.561
  Evaporation Loss .........         0.000         0.000
  Exfiltration Loss ........         0.000         0.000
  Initial Stored Volume ....         0.000         0.000
  Final Stored Volume ......         0.127         0.041
  Continuity Error (%) .....        -0.131
  
  
  *************************
  Highest Continuity Errors
  *************************
  Node 10309 (2.72%)
  Node 16009 (2.27%)
  Node 16109 (2.22%)
  Node 15009 (1.04%)
  
  
  ********************************
  Highest Flow Instability Indexes
  ********************************
  Link 1630 (6)
  Link 1600 (5)
  Link 1602 (1)
  Link 1570 (1)
  
  
  *************************
  Routing Time Step Summary
  *************************
  Minimum Time Step           :    20.00 sec
  Average Time Step           :    20.00 sec
  Maximum Time Step           :    20.00 sec
  Percent in Steady State     :     0.00
  Average Iterations per Step :     3.23
  Percent Not Converging      :    10.21
  
  
  ******************
  Node Depth Summary
  ******************
  
  ---------------------------------------------------------------------------------
                                 Average  Maximum  Maximum  Time of Max    Reported
                                   Depth    Depth      HGL   Occurrence   Max Depth
  Node                 Type         Feet     Feet     Feet  days hr:min        Feet
  ---------------------------------------------------------------------------------
  80408                JUNCTION     5.38    13.40   138.00     0  00:03       13.40
  80608                JUNCTION     6.60    16.70   135.00     0  00:13       16.70
  81009                JUNCTION     3.54     8.80   137.00     0  00:05        8.80
  81309                JUNCTION     3.13    12.50   130.00     0  00:49       10.68
  82309                JUNCTION    17.99    42.70   155.00     0  00:11       42.70
  10309                JUNCTION     4.10     9.40   111.00     0  01:24        9.40
  15009                JUNCTION     2.91    13.50   125.00     0  01:34       10.62
  16009                JUNCTION     4.57    11.21   113.21     0  01:35       11.00
  16109                JUNCTION     4.33    11.29   114.09     0  01:35       11.00
  10208                OUTFALL      0.39     0.53    90.43     0  01:42        0.53
  
  
  *******************
  Node Inflow Summary
  *******************
  
  -------------------------------------------------------------------------------------------------
                                  Maximum  Maximum                  Lateral       Total        Flow
                                  Lateral    Total  Time of Max      Inflow      Inflow     Balance
                                   Inflow   Inflow   Occurrence      Volume      Volume       Error
  Node                 Type           CFS      CFS  days hr:min    10^6 gal    10^6 gal     Percent
  -------------------------------------------------------------------------------------------------
  80408                JUNCTION     45.00    45.00     0  00:15        3.64        3.64      -0.031
  80608                JUNCTION      0.00    10.11     0  00:12           0       0.471       0.434
  81009                JUNCTION     50.00    50.00     0  00:15        4.04        4.04      -0.025
  81309                JUNCTION      0.00     2.76     0  00:46           0       0.175       0.609
  82309                JUNCTION     40.00    40.00     0  00:15        3.23        3.25       0.014
  10309                JUNCTION      0.00     3.23     0  01:35           0       0.376       2.794
  15009                JUNCTION      0.00     2.22     0  01:31           0       0.174       1.053
  16009                JUNCTION      0.00     3.21     0  01:35           0       0.385       2.319
  16109                JUNCTION      0.00     2.05     0  00:54           0       0.218       2.273
  10208                OUTFALL       0.00     2.16     0  01:42           0       0.319       0.000
  
  
  **********************
  Node Surcharge Summary
  **********************
  
  Surcharging occurs when water rises above the top of the highest conduit.
  ---------------------------------------------------------------------
                                               Max. Height   Min. Depth
                                   Hours       Above Crown    Below Rim
  Node                 Type      Surcharged           Feet         Feet
  ---------------------------------------------------------------------
  80408                JUNCTION        3.21         12.400        0.000
  80608                JUNCTION        3.29         15.700        0.000
  81009                JUNCTION        3.17          7.800        0.000
  81309                JUNCTION        2.74         11.500        0.000
  82309                JUNCTION        4.14         39.500        0.000
  10309                JUNCTION        5.17          8.400        0.000
  15009                JUNCTION        2.68         12.500        0.000
  16009                JUNCTION        5.29         10.208        6.792
  16109                JUNCTION        4.29         10.290       10.910
  
  
  *********************
  Node Flooding Summary
  *********************
  
  Flooding refers to all water that overflows a node, whether it ponds or not.
  --------------------------------------------------------------------------
                                                             Total   Maximum
                                 Maximum   Time of Max       Flood    Ponded
                        Hours       Rate    Occurrence      Volume     Depth
  Node                 Flooded       CFS   days hr:min    10^6 gal      Feet
  --------------------------------------------------------------------------
  80408                   3.19     43.39      0  00:24       3.484     0.000
  80608                   3.04      8.83      0  00:13       0.446     0.000
  81009                   3.16     48.37      0  01:35       3.865     0.000
  81309                   0.01      0.94      0  00:49       0.000     0.000
  82309                   3.04     35.07      0  00:15       2.717     0.000
  10309                   1.86      1.06      0  01:35       0.048     0.000
  15009                   0.01      0.95      0  01:34       0.000     0.000
  
  
  ***********************
  Outfall Loading Summary
  ***********************
  
  -----------------------------------------------------------
                         Flow       Avg       Max       Total
                         Freq      Flow      Flow      Volume
  Outfall Node           Pcnt       CFS       CFS    10^6 gal
  -----------------------------------------------------------
  10208                 91.88      1.61      2.16       0.319
  -----------------------------------------------------------
  System                91.88      1.61      2.16       0.319
  
  
  ********************
  Link Flow Summary
  ********************
  
  -----------------------------------------------------------------------------
                                 Maximum  Time of Max   Maximum    Max/    Max/
                                  |Flow|   Occurrence   |Veloc|    Full    Full
  Link                 Type          CFS  days hr:min    ft/sec    Flow   Depth
  -----------------------------------------------------------------------------
  8040                 CONDUIT      4.27     0  00:12      5.51    1.84    1.00
  8060                 CONDUIT      5.84     0  00:12      6.10    3.47    1.00
  8100                 CONDUIT      2.76     0  00:46      2.84    1.53    1.00
  8130                 CONDUIT      2.22     0  01:31      2.89    1.37    1.00
  1030                 CONDUIT      2.16     0  01:42      2.83    1.15    0.76
  1570                 CONDUIT      1.65     0  03:14      1.65    0.99    1.00
  1600                 CONDUIT      1.86     0  01:07      2.09    1.18    1.00
  1630                 CONDUIT      3.23     0  01:35      3.73    2.25    1.00
  1602                 CONDUIT      2.05     0  00:54      2.11    2.71    1.00
  
  
  ***************************
  Flow Classification Summary
  ***************************
  
  -------------------------------------------------------------------------------------
                      Adjusted    ---------- Fraction of Time in Flow Class ---------- 
                       /Actual         Up    Down  Sub   Sup   Up    Down  Norm  Inlet 
  Conduit               Length    Dry  Dry   Dry   Crit  Crit  Crit  Crit  Ltd   Ctrl  
  -------------------------------------------------------------------------------------
  8040                    1.00   0.00  0.00  0.00  0.99  0.01  0.00  0.00  0.57  0.00
  8060                    1.00   0.00  0.00  0.00  0.69  0.00  0.00  0.30  0.22  0.00
  8100                    1.00   0.00  0.00  0.00  1.00  0.00  0.00  0.00  0.57  0.00
  8130                    1.00   0.00  0.00  0.00  1.00  0.00  0.00  0.00  0.50  0.00
  1030                    1.00   0.03  0.00  0.00  0.97  0.00  0.00  0.00  0.00  0.00
  1570                    1.00   0.01  0.00  0.00  0.99  0.00  0.00  0.00  0.51  0.00
  1600                    1.00   0.00  0.00  0.00  1.00  0.00  0.00  0.00  0.20  0.00
  1630                    1.00   0.01  0.00  0.00  0.99  0.00  0.00  0.00  0.00  0.00
  1602                    1.00   0.00  0.00  0.00  1.00  0.00  0.00  0.00  0.00  0.00
  
  
  *************************
  Conduit Surcharge Summary
  *************************
  
  ----------------------------------------------------------------------------
                                                           Hours        Hours 
                         --------- Hours Full --------   Above Full   Capacity
  Conduit                Both Ends  Upstream  Dnstream   Normal Flow   Limited
  ----------------------------------------------------------------------------
  8040                        3.05      3.21      3.29      0.16         0.01
  8060                        3.29      3.29      4.14      3.05         0.01
  8100                        2.44      3.17      2.74      1.21         0.73
  8130                        1.98      2.74      2.68      2.41         1.67
  1030                        0.01      5.17      0.01      2.96         0.01
  1570                        2.68      2.68      5.29      0.01         0.01
  1600                        4.29      4.29      5.29      2.23         2.00
  1630                        5.08      5.29      5.17      5.49         5.02
  1602                        4.29      6.71      4.29      4.58         2.68
  

  Analysis begun on:  Wed Jan 02 09:01:38 2019
  Analysis ended on:  Wed Jan 02 09:01:38 2019
  Total elapsed time: < 1 sec