
  EPA STORM WATER MANAGEMENT MODEL - VERSION 5.1 (Build 5.1.013)
  --------------------------------------------------------------

  Example 1 of Extran Manual 
  
  
  *************
  Element Count
  *************
  Number of rain gages ...... 0
  Number of subcatchments ... 0
  Number of nodes ........... 10
  Number of links ........... 9
  Number of pollutants ...... 0
  Number of land uses ....... 0
  
  
  ************
  Node Summary
  ************
                                           Invert      Max.    Ponded    External
  Name                 Type                 Elev.     Depth      Area    Inflow  
  -------------------------------------------------------------------------------
  80408                JUNCTION            124.60     13.40       0.0    Yes
  80608                JUNCTION            118.30     16.70       0.0
  81009                JUNCTION            128.20      8.80       0.0    Yes
  81309                JUNCTION            117.50     12.50       0.0
  82309                JUNCTION            112.30     42.70       0.0    Yes
  10309                JUNCTION            101.60      9.40       0.0
  15009                JUNCTION            111.50     13.50       0.0
  16009                JUNCTION            102.00     18.00       0.0
  16109                JUNCTION            102.80     22.20       0.0
  10208                OUTFALL              89.90      4.00       0.0
  
  
  ************
  Link Summary
  ************
  Name             From Node        To Node          Type            Length    %Slope Roughness
  ---------------------------------------------------------------------------------------------
  8040             80408            80608            CONDUIT         1800.0    0.3500    0.0130
  8060             80608            82309            CONDUIT         2075.0    0.1831    0.0130
  8100             81009            81309            CONDUIT         5100.0    0.2098    0.0130
  8130             81309            15009            CONDUIT         3500.0    0.1714    0.0130
  1030             10309            10208            CONDUIT         4500.0    0.2600    0.0130
  1570             15009            16009            CONDUIT         5000.0    0.1900    0.0130
  1600             16109            16009            CONDUIT          500.0    0.1600    0.0130
  1630             16009            10309            CONDUIT          300.0    0.1333    0.0130
  1602             82309            16109            CONDUIT         5000.0    0.1900    0.0130
  
  
  *********************
  Cross Section Summary
  *********************
                                        Full     Full     Hyd.     Max.   No. of     Full
  Conduit          Shape               Depth     Area     Rad.    Width  Barrels     Flow
  ---------------------------------------------------------------------------------------
  8040             Transect             4.00     7.00     0.82     4.00        1    41.41
  8060             Transect             4.00     7.00     0.82     4.00        1    29.95
  8100             Transect             4.00     7.00     0.82     4.00        1    32.06
  8130             Transect             4.00     7.00     0.82     4.00        1    28.98
  1030             Transect             4.00     7.00     0.82     4.00        1    35.69
  1570             Transect             4.00     7.00     0.82     4.00        1    30.51
  1600             Transect             4.00     7.00     0.82     4.00        1    28.00
  1630             Transect             4.00     7.00     0.82     4.00        1    25.56
  1602             Transect             4.00     7.00     0.82     4.00        1    30.51
  
  
  *************
  Shape Summary
  *************

  Shape 0
  Area:  
              0.0004     0.0016     0.0036     0.0064     0.0100 
              0.0144     0.0196     0.0256     0.0324     0.0400 
              0.0484     0.0576     0.0676     0.0784     0.0900 
              0.1024     0.1156     0.1296     0.1444     0.1600 
              0.1764     0.1936     0.2116     0.2304     0.2500 
              0.2704     0.2916     0.3136     0.3364     0.3600 
              0.3844     0.4096     0.4356     0.4624     0.4900 
              0.5184     0.5476     0.5776     0.6084     0.6400 
              0.6724     0.7056     0.7396     0.7744     0.8100 
              0.8464     0.8836     0.9216     0.9604     1.0000 
  Hrad:  
              0.0341     0.0683     0.1024     0.1366     0.1707 
              0.2049     0.2390     0.2731     0.3073     0.3414 
              0.3756     0.4097     0.4438     0.4780     0.5121 
              0.5463     0.5804     0.6146     0.6487     0.6828 
              0.7170     0.7511     0.7853     0.8194     0.8536 
              0.8877     0.9218     0.9560     0.9901     1.0243 
              1.0584     1.0925     1.1267     1.1608     1.1950 
              1.2291     1.2633     1.2974     1.3315     1.3657 
              1.3998     1.4340     1.4681     1.5023     1.5364 
              1.5705     1.6047     1.6388     1.6730     1.0000 
  Width: 
              0.0200     0.0400     0.0600     0.0800     0.1000 
              0.1200     0.1400     0.1600     0.1800     0.2000 
              0.2200     0.2400     0.2600     0.2800     0.3000 
              0.3200     0.3400     0.3600     0.3800     0.4000 
              0.4200     0.4400     0.4600     0.4800     0.5000 
              0.5200     0.5400     0.5600     0.5800     0.6000 
              0.6200     0.6400     0.6600     0.6800     0.7000 
              0.7200     0.7400     0.7600     0.7800     0.8000 
              0.8200     0.8400     0.8600     0.8800     0.9000 
              0.9200     0.9400     0.9600     0.9800     1.0000 
  
  
  
  ****************
  Transect Summary
  ****************

  Transect Transect
  Area:  
              0.0004     0.0015     0.0034     0.0061     0.0095 
              0.0137     0.0187     0.0244     0.0309     0.0381 
              0.0461     0.0549     0.0644     0.0747     0.0857 
              0.0975     0.1101     0.1234     0.1375     0.1524 
              0.1680     0.1844     0.2015     0.2194     0.2381 
              0.2575     0.2777     0.2987     0.3204     0.3429 
              0.3661     0.3901     0.4149     0.4404     0.4667 
              0.4937     0.5215     0.5502     0.5801     0.6114 
              0.6441     0.6782     0.7136     0.7504     0.7886 
              0.8281     0.8690     0.9113     0.9550     1.0000 
  Hrad:  
              0.0187     0.0374     0.0560     0.0747     0.0934 
              0.1121     0.1308     0.1494     0.1681     0.1868 
              0.2055     0.2242     0.2428     0.2615     0.2802 
              0.2989     0.3176     0.3362     0.3549     0.3736 
              0.3923     0.4110     0.4296     0.4483     0.4670 
              0.4945     0.5204     0.5450     0.5685     0.5910 
              0.6127     0.6335     0.6537     0.6732     0.6921 
              0.7106     0.7286     0.7516     0.7784     0.8036 
              0.8272     0.8496     0.8710     0.8914     0.9109 
              0.9298     0.9481     0.9658     0.9831     1.0000 
  Width: 
              0.0167     0.0333     0.0500     0.0667     0.0833 
              0.1000     0.1167     0.1333     0.1500     0.1667 
              0.1833     0.2000     0.2167     0.2333     0.2500 
              0.2667     0.2833     0.3000     0.3167     0.3333 
              0.3500     0.3667     0.3833     0.4000     0.4167 
              0.4333     0.4500     0.4667     0.4833     0.5000 
              0.5167     0.5333     0.5500     0.5667     0.5833 
              0.6000     0.6167     0.6400     0.6700     0.7000 
              0.7300     0.7600     0.7900     0.8200     0.8500 
              0.8800     0.9100     0.9400     0.9700     1.0000 
  
  
  *********************************************************
  NOTE: The summary statistics displayed in this report are
  based on results found at every computational time step,  
  not just on results from each reporting time step.
  *********************************************************
  
  ****************
  Analysis Options
  ****************
  Flow Units ............... CFS
  Process Models:
    Rainfall/Runoff ........ NO
    RDII ................... NO
    Snowmelt ............... NO
    Groundwater ............ NO
    Flow Routing ........... YES
    Ponding Allowed ........ NO
    Water Quality .......... NO
  Flow Routing Method ...... DYNWAVE
  Surcharge Method ......... EXTRAN
  Starting Date ............ 01/01/2002 00:00:00
  Ending Date .............. 01/01/2002 08:00:00
  Antecedent Dry Days ...... 0.0
  Report Time Step ......... 00:15:00
  Routing Time Step ........ 20.00 sec
  Variable Time Step ....... NO
  Maximum Trials ........... 8
  Number of Threads ........ 1
  Head Tolerance ........... 0.005000 ft
  
  
  *********************
  Control Actions Taken
  *********************

  
  **************************        Volume        Volume
  Flow Routing Continuity        acre-feet      10^6 gal
  **************************     ---------     ---------
  Dry Weather Inflow .......         0.000         0.000
  Wet Weather Inflow .......         0.000         0.000
  Groundwater Inflow .......         0.000         0.000
  RDII Inflow ..............         0.000         0.000
  External Inflow ..........        33.470        10.907
  External Outflow .........        13.040         4.249
  Flooding Loss ............        20.478         6.673
  Evaporation Loss .........         0.000         0.000
  Exfiltration Loss ........         0.000         0.000
  Initial Stored Volume ....         0.000         0.000
  Final Stored Volume ......         0.059         0.019
  Continuity Error (%) .....        -0.319
  
  
  *************************
  Highest Continuity Errors
  *************************
  Node 82309 (-2.84%)
  Node 80608 (1.77%)
  Node 15009 (1.59%)
  Node 16109 (1.25%)
  
  
  ********************************
  Highest Flow Instability Indexes
  ********************************
  Link 1600 (7)
  Link 8060 (2)
  Link 8040 (2)
  Link 8130 (1)
  Link 8100 (1)
  
  
  *************************
  Routing Time Step Summary
  *************************
  Minimum Time Step           :    20.00 sec
  Average Time Step           :    20.00 sec
  Maximum Time Step           :    20.00 sec
  Percent in Steady State     :     0.00
  Average Iterations per Step :     3.12
  Percent Not Converging      :    12.01
  
  
  ******************
  Node Depth Summary
  ******************
  
  ---------------------------------------------------------------------------------
                                 Average  Maximum  Maximum  Time of Max    Reported
                                   Depth    Depth      HGL   Occurrence   Max Depth
  Node                 Type         Feet     Feet     Feet  days hr:min        Feet
  ---------------------------------------------------------------------------------
  80408                JUNCTION     5.01    13.40   138.00     0  00:19       13.40
  80608                JUNCTION     6.44    16.70   135.00     0  00:22       16.70
  81009                JUNCTION     3.67     8.80   137.00     0  00:13        8.80
  81309                JUNCTION     4.31    12.50   130.00     0  00:32       10.93
  82309                JUNCTION     8.93    42.70   155.00     0  00:22       22.66
  10309                JUNCTION     4.90     9.40   111.00     0  00:39        9.40
  15009                JUNCTION     4.32    13.50   125.00     0  00:54       11.05
  16009                JUNCTION     5.78    12.27   114.27     0  00:54       12.15
  16109                JUNCTION     5.89    13.37   116.17     0  00:54       13.24
  10208                OUTFALL      2.22     3.60    93.50     0  00:39        3.60
  
  
  *******************
  Node Inflow Summary
  *******************
  
  -------------------------------------------------------------------------------------------------
                                  Maximum  Maximum                  Lateral       Total        Flow
                                  Lateral    Total  Time of Max      Inflow      Inflow     Balance
                                   Inflow   Inflow   Occurrence      Volume      Volume       Error
  Node                 Type           CFS      CFS  days hr:min    10^6 gal    10^6 gal     Percent
  -------------------------------------------------------------------------------------------------
  80408                JUNCTION     45.00    45.00     0  00:15        3.64        3.64      -0.428
  80608                JUNCTION      0.00    45.47     0  00:19           0        2.47       1.804
  81009                JUNCTION     50.00    50.00     0  00:15        4.04        4.04      -1.171
  81309                JUNCTION      0.00    38.60     0  00:31           0        2.53       0.888
  82309                JUNCTION     40.00    86.87     0  00:19        3.23        3.85      -2.757
  10309                JUNCTION      0.00    71.74     0  01:03           0        6.37       0.075
  15009                JUNCTION      0.00    35.11     0  00:53           0         2.5       1.618
  16009                JUNCTION      0.00    71.74     0  01:09           0        6.36      -0.050
  16109                JUNCTION      0.00    52.90     0  00:28           0        3.95       1.268
  10208                OUTFALL       0.00    40.01     0  00:39           0        4.25       0.000
  
  
  **********************
  Node Surcharge Summary
  **********************
  
  Surcharging occurs when water rises above the top of the highest conduit.
  ---------------------------------------------------------------------
                                               Max. Height   Min. Depth
                                   Hours       Above Crown    Below Rim
  Node                 Type      Surcharged           Feet         Feet
  ---------------------------------------------------------------------
  80408                JUNCTION        2.93          9.400        0.000
  80608                JUNCTION        2.93         12.700        0.000
  81009                JUNCTION        2.94          4.800        0.000
  81309                JUNCTION        2.76          8.500        0.000
  82309                JUNCTION        2.96         36.500        0.000
  10309                JUNCTION        3.47          5.400        0.000
  15009                JUNCTION        2.67          9.500        0.000
  16009                JUNCTION        3.56          8.272        5.728
  16109                JUNCTION        3.49          9.370        8.830
  
  
  *********************
  Node Flooding Summary
  *********************
  
  Flooding refers to all water that overflows a node, whether it ponds or not.
  --------------------------------------------------------------------------
                                                             Total   Maximum
                                 Maximum   Time of Max       Flood    Ponded
                        Hours       Rate    Occurrence      Volume     Depth
  Node                 Flooded       CFS   days hr:min    10^6 gal      Feet
  --------------------------------------------------------------------------
  80408                   2.73     16.42      0  00:47       1.182     0.000
  80608                   2.77     31.85      0  00:22       1.809     0.000
  81009                   2.89     23.36      0  00:15       1.556     0.000
  81309                   0.03     13.71      0  00:32       0.004     0.000
  82309                   0.01     30.82      0  00:22       0.005     0.000
  10309                   2.97     31.77      0  01:05       2.112     0.000
  15009                   0.02     15.61      0  00:54       0.004     0.000
  
  
  ***********************
  Outfall Loading Summary
  ***********************
  
  -----------------------------------------------------------
                         Flow       Avg       Max       Total
                         Freq      Flow      Flow      Volume
  Outfall Node           Pcnt       CFS       CFS    10^6 gal
  -----------------------------------------------------------
  10208                 95.49     20.66     40.01       4.249
  -----------------------------------------------------------
  System                95.49     20.66     40.01       4.249
  
  
  ********************
  Link Flow Summary
  ********************
  
  -----------------------------------------------------------------------------
                                 Maximum  Time of Max   Maximum    Max/    Max/
                                  |Flow|   Occurrence   |Veloc|    Full    Full
  Link                 Type          CFS  days hr:min    ft/sec    Flow   Depth
  -----------------------------------------------------------------------------
  8040                 CHANNEL     45.47     0  00:19      8.18    1.10    1.00
  8060                 CHANNEL     46.87     0  00:19      7.12    1.56    1.00
  8100                 CHANNEL     38.60     0  00:31      9.24    1.20    1.00
  8130                 CHANNEL     35.11     0  00:53      9.46    1.21    1.00
  1030                 CHANNEL     40.01     0  00:39      6.42    1.12    0.95
  1570                 CHANNEL     28.77     0  03:06      4.11    0.94    1.00
  1600                 CHANNEL     50.51     0  00:34     10.43    1.80    1.00
  1630                 CHANNEL     71.74     0  01:03     10.30    2.81    1.00
  1602                 CHANNEL     52.90     0  00:28      9.28    1.73    1.00
  
  
  ***************************
  Flow Classification Summary
  ***************************
  
  -------------------------------------------------------------------------------------
                      Adjusted    ---------- Fraction of Time in Flow Class ---------- 
                       /Actual         Up    Down  Sub   Sup   Up    Down  Norm  Inlet 
  Conduit               Length    Dry  Dry   Dry   Crit  Crit  Crit  Crit  Ltd   Ctrl  
  -------------------------------------------------------------------------------------
  8040                    1.00   0.00  0.00  0.00  0.97  0.03  0.00  0.00  0.60  0.00
  8060                    1.00   0.00  0.00  0.00  0.46  0.00  0.00  0.54  0.07  0.00
  8100                    1.00   0.00  0.00  0.00  0.98  0.02  0.00  0.00  0.60  0.00
  8130                    1.00   0.00  0.00  0.00  0.98  0.02  0.00  0.00  0.57  0.00
  1030                    1.00   0.03  0.00  0.00  0.97  0.00  0.00  0.00  0.00  0.00
  1570                    1.00   0.01  0.00  0.00  0.98  0.00  0.00  0.00  0.57  0.00
  1600                    1.00   0.00  0.00  0.00  0.98  0.02  0.00  0.00  0.26  0.00
  1630                    1.00   0.01  0.00  0.00  0.65  0.33  0.00  0.00  0.03  0.00
  1602                    1.00   0.00  0.00  0.00  0.98  0.02  0.00  0.00  0.52  0.00
  
  
  *************************
  Conduit Surcharge Summary
  *************************
  
  ----------------------------------------------------------------------------
                                                           Hours        Hours 
                         --------- Hours Full --------   Above Full   Capacity
  Conduit                Both Ends  Upstream  Dnstream   Normal Flow   Limited
  ----------------------------------------------------------------------------
  8040                        2.85      2.93      2.93      0.12         0.05
  8060                        2.88      2.93      2.96      0.04         0.01
  8100                        2.63      2.94      2.76      0.46         0.27
  8130                        2.39      2.76      2.67      0.36         0.01
  1030                        0.01      3.46      0.01      3.24         0.01
  1570                        2.67      2.67      3.56      0.01         0.02
  1600                        3.39      3.49      3.56      2.76         2.65
  1630                        3.46      3.56      3.46      3.61         3.46
  1602                        3.30      3.54      3.49      2.84         2.72
  

  Analysis begun on:  Wed Jan 02 09:01:36 2019
  Analysis ended on:  Wed Jan 02 09:01:37 2019
  Total elapsed time: 00:00:01