
  EPA STORM WATER MANAGEMENT MODEL - VERSION 5.1 (Build 5.1.013)
  --------------------------------------------------------------

  Example 6 of Extran Manual - 
  Type 1 Pump 
  
  WARNING 04: minimum elevation drop used for Conduit 8061
  
  *********************************************************
  NOTE: The summary statistics displayed in this report are
  based on results found at every computational time step,  
  not just on results from each reporting time step.
  *********************************************************
  
  ****************
  Analysis Options
  ****************
  Flow Units ............... CFS
  Process Models:
    Rainfall/Runoff ........ NO
    RDII ................... NO
    Snowmelt ............... NO
    Groundwater ............ NO
    Flow Routing ........... YES
    Ponding Allowed ........ NO
    Water Quality .......... NO
  Flow Routing Method ...... DYNWAVE
  Surcharge Method ......... EXTRAN
  Starting Date ............ 01/01/2002 00:00:00
  Ending Date .............. 01/01/2002 08:00:00
  Antecedent Dry Days ...... 0.0
  Report Time Step ......... 00:15:00
  Routing Time Step ........ 300.00 sec
  Variable Time Step ....... NO
  Maximum Trials ........... 8
  Number of Threads ........ 1
  Head Tolerance ........... 0.005000 ft
  
  
  **************************        Volume        Volume
  Flow Routing Continuity        acre-feet      10^6 gal
  **************************     ---------     ---------
  Dry Weather Inflow .......         0.000         0.000
  Wet Weather Inflow .......         0.000         0.000
  Groundwater Inflow .......         0.000         0.000
  RDII Inflow ..............         0.000         0.000
  External Inflow ..........        33.470        10.907
  External Outflow .........      1941.163       632.557
  Flooding Loss ............      5472.045      1783.148
  Evaporation Loss .........         0.000         0.000
  Exfiltration Loss ........         0.000         0.000
  Initial Stored Volume ....         0.000         0.000
  Final Stored Volume ......        31.497        10.264
  Continuity Error (%) .....    -22143.003
  
  
  *************************
  Highest Continuity Errors
  *************************
  Node 16109 (-4179.03%)
  Node 16009 (-1089.69%)
  Node 80608 (-35.82%)
  Node 82309 (-23.12%)
  Node 15009 (-19.07%)
  
  
  ********************************
  Highest Flow Instability Indexes
  ********************************
  Link 8061 (110)
  Link 1570 (101)
  Link 1600 (99)
  Link 1030 (96)
  Link 1602 (94)
  
  
  *************************
  Routing Time Step Summary
  *************************
  Minimum Time Step           :   300.00 sec
  Average Time Step           :   300.00 sec
  Maximum Time Step           :   300.00 sec
  Percent in Steady State     :     0.00
  Average Iterations per Step :     8.00
  Percent Not Converging      :   100.00
  
  
  ******************
  Node Depth Summary
  ******************
  
  ---------------------------------------------------------------------------------
                                 Average  Maximum  Maximum  Time of Max    Reported
                                   Depth    Depth      HGL   Occurrence   Max Depth
  Node                 Type         Feet     Feet     Feet  days hr:min        Feet
  ---------------------------------------------------------------------------------
  80408                JUNCTION     1.66    13.40   138.00     0  00:10        8.01
  80608                JUNCTION     2.01    11.76   130.06     0  00:20       11.58
  81009                JUNCTION     1.09     2.80   131.00     0  00:40        2.78
  81309                JUNCTION     1.24     2.82   120.32     0  02:50        2.82
  82309                JUNCTION     3.67    10.52   122.82     0  01:45       10.52
  10309                JUNCTION     8.80     9.40   111.00     0  00:30        9.40
  15009                JUNCTION     2.85     4.75   116.25     0  05:20        4.17
  16009                JUNCTION     7.34    18.00   120.00     0  04:40       13.84
  16109                JUNCTION     7.60    22.20   125.00     0  05:20       18.41
  82310                JUNCTION    36.48    42.70   116.30     0  00:10       42.70
  10208                OUTFALL      8.69     9.00    98.90     0  00:20        9.00
  
  
  *******************
  Node Inflow Summary
  *******************
  
  -------------------------------------------------------------------------------------------------
                                  Maximum  Maximum                  Lateral       Total        Flow
                                  Lateral    Total  Time of Max      Inflow      Inflow     Balance
                                   Inflow   Inflow   Occurrence      Volume      Volume       Error
  Node                 Type           CFS      CFS  days hr:min    10^6 gal    10^6 gal     Percent
  -------------------------------------------------------------------------------------------------
  80408                JUNCTION     45.00   129.31     0  00:35        3.64        4.04     -16.789
  80608                JUNCTION      0.00   304.03     0  00:20           0         4.6     -26.372
  81009                JUNCTION     50.00    50.00     0  00:20        4.04        4.04       0.253
  81309                JUNCTION      0.00    52.04     0  00:50           0        4.04       0.313
  82309                JUNCTION     40.00   349.91     0  01:45        3.23        20.7     -18.780
  10309                JUNCTION      0.00 36775.60     0  01:00           0   2.17e+003      -9.081
  15009                JUNCTION      0.00    96.63     0  00:30           0        5.59     -16.015
  16009                JUNCTION      0.00  3199.08     0  04:40           0         183     -91.594
  16109                JUNCTION      0.00   781.32     0  04:45           0        4.32     -97.663
  82310                JUNCTION      0.00  2277.29     0  00:35           0        24.2      -2.115
  10208                OUTFALL       0.00  4081.12     0  05:25           0         633       0.000
  
  
  **********************
  Node Surcharge Summary
  **********************
  
  Surcharging occurs when water rises above the top of the highest conduit.
  ---------------------------------------------------------------------
                                               Max. Height   Min. Depth
                                   Hours       Above Crown    Below Rim
  Node                 Type      Surcharged           Feet         Feet
  ---------------------------------------------------------------------
  80408                JUNCTION        0.83          9.400        0.000
  80608                JUNCTION        1.33          7.761        4.939
  82309                JUNCTION        0.33          4.320       32.180
  10309                JUNCTION        7.58          0.400        0.000
  16009                JUNCTION        4.67          9.000        0.000
  16109                JUNCTION        5.08         16.200        0.000
  82310                JUNCTION        5.92          0.000        0.000
  
  
  *********************
  Node Flooding Summary
  *********************
  
  Flooding refers to all water that overflows a node, whether it ponds or not.
  --------------------------------------------------------------------------
                                                             Total   Maximum
                                 Maximum   Time of Max       Flood    Ponded
                        Hours       Rate    Occurrence      Volume     Depth
  Node                 Flooded       CFS   days hr:min    10^6 gal      Feet
  --------------------------------------------------------------------------
  80408                   0.17     58.56      0  00:35       0.255     0.000
  10309                   4.92  16451.37      0  04:45    1770.006     0.000
  16009                   0.08   1607.67      0  04:40       3.608     0.000
  16109                   0.08     61.17      0  05:20       0.137     0.000
  82310                   5.92   1186.29      0  00:35      21.008     0.000
  
  
  ***********************
  Outfall Loading Summary
  ***********************
  
  -----------------------------------------------------------
                         Flow       Avg       Max       Total
                         Freq      Flow      Flow      Volume
  Outfall Node           Pcnt       CFS       CFS    10^6 gal
  -----------------------------------------------------------
  10208                 97.92   3014.82   4081.12     632.510
  -----------------------------------------------------------
  System                97.92   3014.82   4081.12     632.510
  
  
  ********************
  Link Flow Summary
  ********************
  
  -----------------------------------------------------------------------------
                                 Maximum  Time of Max   Maximum    Max/    Max/
                                  |Flow|   Occurrence   |Veloc|    Full    Full
  Link                 Type          CFS  days hr:min    ft/sec    Flow   Depth
  -----------------------------------------------------------------------------
  8040                 CONDUIT    304.03     0  00:20     24.19    4.13    1.00
  8060                 CONDUIT    161.18     0  01:45     12.83    3.03    1.00
  8100                 CONDUIT     52.04     0  00:50      8.16    0.67    0.60
  8130                 CONDUIT     50.57     0  02:50     12.76    0.72    0.80
  1030                 CONDUIT   4081.12     0  05:25     47.52    1.35    1.00
  1570                 CONDUIT    138.29     0  02:10     32.67    1.12    0.96
  1600                 CONDUIT   3140.94     0  04:40    >50.00   21.39    1.00
  1630                 CONDUIT  36775.60     0  01:00    >50.00   15.90    1.00
  1602                 CONDUIT    255.22     0  05:20     14.10    5.88    1.00
  8061                 CONDUIT   2277.29     0  00:35    >50.00  267.18    1.00
  90011                PUMP        69.11     0  05:50              3.46
  
  
  ***************************
  Flow Classification Summary
  ***************************
  
  -------------------------------------------------------------------------------------
                      Adjusted    ---------- Fraction of Time in Flow Class ---------- 
                       /Actual         Up    Down  Sub   Sup   Up    Down  Norm  Inlet 
  Conduit               Length    Dry  Dry   Dry   Crit  Crit  Crit  Crit  Ltd   Ctrl  
  -------------------------------------------------------------------------------------
  8040                    1.00   0.00  0.42  0.00  0.57  0.01  0.00  0.00  0.88  0.00
  8060                    1.00   0.02  0.00  0.00  0.67  0.00  0.00  0.31  0.50  0.00
  8100                    1.00   0.00  0.01  0.00  0.96  0.03  0.00  0.00  0.90  0.00
  8130                    1.00   0.00  0.01  0.00  0.98  0.01  0.00  0.00  0.84  0.00
  1030                    1.00   0.02  0.00  0.00  0.02  0.96  0.00  0.00  0.04  0.00
  1570                    1.00   0.00  0.01  0.00  0.82  0.17  0.00  0.00  0.04  0.00
  1600                    1.00   0.29  0.00  0.00  0.36  0.34  0.00  0.00  0.06  0.00
  1630                    1.00   0.01  0.00  0.00  0.61  0.38  0.00  0.00  0.64  0.00
  1602                    1.00   0.01  0.02  0.00  0.92  0.05  0.00  0.00  0.03  0.00
  8061                    1.00   0.01  0.00  0.00  0.69  0.17  0.00  0.14  0.25  0.00
  
  
  *************************
  Conduit Surcharge Summary
  *************************
  
  ----------------------------------------------------------------------------
                                                           Hours        Hours 
                         --------- Hours Full --------   Above Full   Capacity
  Conduit                Both Ends  Upstream  Dnstream   Normal Flow   Limited
  ----------------------------------------------------------------------------
  8040                        0.58      0.67      1.33      0.42         0.25
  8060                        0.25      1.33      0.25      1.33         0.08
  8130                        0.01      0.01      0.17      0.01         0.01
  1030                        0.01      2.92      0.01      5.17         0.01
  1570                        0.01      0.01      2.58      0.83         0.01
  1600                        2.25      5.08      2.75      4.83         2.25
  1630                        0.17      2.42      2.92      2.50         0.01
  1602                        0.67      0.92      5.33      2.67         0.01
  8061                        2.83      3.58      6.42      5.92         2.17
  
  
  ***************
  Pumping Summary
  ***************
  
  ---------------------------------------------------------------------------------------------------------
                                                  Min       Avg       Max     Total     Power    % Time Off
                        Percent   Number of      Flow      Flow      Flow    Volume     Usage    Pump Curve
  Pump                 Utilized   Start-Ups       CFS       CFS       CFS  10^6 gal     Kw-hr    Low   High
  ---------------------------------------------------------------------------------------------------------
  90011                   89.58           4      0.00      7.09     69.11     1.369     62.72  100.0    0.0
  

  Analysis begun on:  Wed Jan 02 08:53:55 2019
  Analysis ended on:  Wed Jan 02 08:53:55 2019
  Total elapsed time: < 1 sec