
  EPA STORM WATER MANAGEMENT MODEL - VERSION 5.1 (Build 5.1.013)
  --------------------------------------------------------------

  Example 3 of Extran Manual - 
  Sump Orifice 
  
  
  *********************************************************
  NOTE: The summary statistics displayed in this report are
  based on results found at every computational time step,  
  not just on results from each reporting time step.
  *********************************************************
  
  ****************
  Analysis Options
  ****************
  Flow Units ............... LPS
  Process Models:
    Rainfall/Runoff ........ NO
    RDII ................... NO
    Snowmelt ............... NO
    Groundwater ............ NO
    Flow Routing ........... YES
    Ponding Allowed ........ NO
    Water Quality .......... NO
  Flow Routing Method ...... DYNWAVE
  Surcharge Method ......... EXTRAN
  Starting Date ............ 01/01/2002 00:00:00
  Ending Date .............. 01/01/2002 08:00:00
  Antecedent Dry Days ...... 0.0
  Report Time Step ......... 00:05:00
  Routing Time Step ........ 20.00 sec
  Variable Time Step ....... NO
  Maximum Trials ........... 8
  Number of Threads ........ 1
  Head Tolerance ........... 0.005000 m
  
  
  **************************        Volume        Volume
  Flow Routing Continuity        hectare-m      10^6 ltr
  **************************     ---------     ---------
  Dry Weather Inflow .......         0.000         0.000
  Wet Weather Inflow .......         0.000         0.000
  Groundwater Inflow .......         0.000         0.000
  RDII Inflow ..............         0.000         0.000
  External Inflow ..........         0.146         1.458
  External Outflow .........         0.031         0.305
  Flooding Loss ............         0.000         0.000
  Evaporation Loss .........         0.000         0.000
  Exfiltration Loss ........         0.000         0.000
  Initial Stored Volume ....         0.000         0.000
  Final Stored Volume ......         0.156         1.564
  Continuity Error (%) .....       -28.155
  
  
  *************************
  Highest Continuity Errors
  *************************
  Node 16009 (55.93%)
  Node 10309 (38.82%)
  Node 81309 (26.16%)
  Node 80608 (17.14%)
  Node 15009 (12.31%)
  
  
  ********************************
  Highest Flow Instability Indexes
  ********************************
  All links are stable.
  
  
  *************************
  Routing Time Step Summary
  *************************
  Minimum Time Step           :    20.00 sec
  Average Time Step           :    20.00 sec
  Maximum Time Step           :    20.00 sec
  Percent in Steady State     :     0.00
  Average Iterations per Step :     2.00
  Percent Not Converging      :     0.00
  
  
  ******************
  Node Depth Summary
  ******************
  
  ---------------------------------------------------------------------------------
                                 Average  Maximum  Maximum  Time of Max    Reported
                                   Depth    Depth      HGL   Occurrence   Max Depth
  Node                 Type       Meters   Meters   Meters  days hr:min      Meters
  ---------------------------------------------------------------------------------
  80408                JUNCTION     0.04     0.10   124.70     0  01:04        0.10
  80608                JUNCTION     0.08     0.11   118.41     0  03:10        0.11
  81009                JUNCTION     0.07     0.12   128.32     0  03:01        0.12
  81309                JUNCTION     0.06     0.08   117.58     0  04:14        0.08
  82309                JUNCTION     0.03     0.07   112.37     0  03:01        0.07
  10309                JUNCTION     0.07     0.17   101.77     0  08:00        0.17
  15009                JUNCTION     0.09     0.12   111.62     0  03:36        0.12
  16009                JUNCTION     0.12     0.19   102.19     0  06:32        0.19
  16109                JUNCTION     0.01     0.02   102.82     0  03:38        0.02
  10208                OUTFALL      0.05     0.13    90.03     0  08:00        0.13
  
  
  *******************
  Node Inflow Summary
  *******************
  
  -------------------------------------------------------------------------------------------------
                                  Maximum  Maximum                  Lateral       Total        Flow
                                  Lateral    Total  Time of Max      Inflow      Inflow     Balance
                                   Inflow   Inflow   Occurrence      Volume      Volume       Error
  Node                 Type           LPS      LPS  days hr:min    10^6 ltr    10^6 ltr     Percent
  -------------------------------------------------------------------------------------------------
  80408                JUNCTION     45.00    45.00     0  00:15       0.486       0.486      -4.752
  80608                JUNCTION      0.00    48.49     0  01:42           0        0.51      20.691
  81009                JUNCTION     50.00    50.00     0  00:15        0.54        0.54      -7.551
  81309                JUNCTION      0.00    46.66     0  03:03           0       0.584      35.420
  82309                JUNCTION     40.00    77.80     0  03:00       0.432       0.855      -0.432
  10309                JUNCTION      0.00    44.41     0  07:30           0       0.499      63.459
  15009                JUNCTION      0.00    91.00     0  03:03           0        1.25      14.039
  16009                JUNCTION      0.00    74.32     0  03:45           0        1.13     126.914
  16109                JUNCTION      0.00     3.71     0  03:02           0      0.0444      12.644
  10208                OUTFALL       0.00    40.40     0  08:00           0       0.305       0.000
  
  
  **********************
  Node Surcharge Summary
  **********************
  
  No nodes were surcharged.
  
  
  *********************
  Node Flooding Summary
  *********************
  
  No nodes were flooded.
  
  
  ***********************
  Outfall Loading Summary
  ***********************
  
  -----------------------------------------------------------
                         Flow       Avg       Max       Total
                         Freq      Flow      Flow      Volume
  Outfall Node           Pcnt       LPS       LPS    10^6 ltr
  -----------------------------------------------------------
  10208                 66.18     16.02     40.40       0.305
  -----------------------------------------------------------
  System                66.18     16.02     40.40       0.305
  
  
  ********************
  Link Flow Summary
  ********************
  
  -----------------------------------------------------------------------------
                                 Maximum  Time of Max   Maximum    Max/    Max/
                                  |Flow|   Occurrence   |Veloc|    Full    Full
  Link                 Type          LPS  days hr:min     m/sec    Flow   Depth
  -----------------------------------------------------------------------------
  8040                 CONDUIT     48.49     0  01:42      0.79    0.00    0.03
  8060                 CONDUIT     38.38     0  03:10      0.71    0.00    0.02
  8100                 CONDUIT     46.66     0  03:03      0.67    0.00    0.02
  8130                 CONDUIT     25.79     0  04:14      0.29    0.00    0.02
  1030                 CONDUIT     40.40     0  08:00      0.60    0.00    0.02
  1570                 CONDUIT     71.86     0  03:45      0.53    0.00    0.03
  1600                 CONDUIT      2.46     0  03:39      0.10    0.00    0.02
  1630                 CONDUIT     44.41     0  07:30      0.48    0.00    0.02
  1602                 CONDUIT      3.71     0  03:02      0.13    0.00    0.01
  90010                ORIFICE     71.30     0  03:01                      0.03
  
  
  ***************************
  Flow Classification Summary
  ***************************
  
  -------------------------------------------------------------------------------------
                      Adjusted    ---------- Fraction of Time in Flow Class ---------- 
                       /Actual         Up    Down  Sub   Sup   Up    Down  Norm  Inlet 
  Conduit               Length    Dry  Dry   Dry   Crit  Crit  Crit  Crit  Ltd   Ctrl  
  -------------------------------------------------------------------------------------
  8040                    1.00   0.00  0.00  0.00  0.89  0.11  0.00  0.00  0.79  0.00
  8060                    1.00   0.00  0.00  0.00  0.00  0.00  0.00  1.00  0.00  0.00
  8100                    1.00   0.00  0.00  0.00  0.97  0.03  0.00  0.00  0.49  0.00
  8130                    1.00   0.00  0.00  0.00  1.00  0.00  0.00  0.00  1.00  0.00
  1030                    1.00   0.06  0.00  0.00  0.94  0.00  0.00  0.00  0.00  0.00
  1570                    1.00   0.00  0.00  0.00  1.00  0.00  0.00  0.00  0.53  0.00
  1600                    1.00   0.00  0.00  0.00  1.00  0.00  0.00  0.00  1.00  0.00
  1630                    1.00   0.00  0.00  0.00  1.00  0.00  0.00  0.00  0.00  0.00
  1602                    1.00   0.00  0.00  0.00  1.00  0.00  0.00  0.00  0.00  0.00
  
  
  *************************
  Conduit Surcharge Summary
  *************************
  
  No conduits were surcharged.
  

  Analysis begun on:  Wed Jan 02 08:53:52 2019
  Analysis ended on:  Wed Jan 02 08:53:52 2019
  Total elapsed time: < 1 sec