
  EPA STORM WATER MANAGEMENT MODEL - VERSION 5.1 (Build 5.1.013)
  --------------------------------------------------------------

  Example 1 of Extran Manual 
  
  
  *********************************************************
  NOTE: The summary statistics displayed in this report are
  based on results found at every computational time step,  
  not just on results from each reporting time step.
  *********************************************************
  
  ****************
  Analysis Options
  ****************
  Flow Units ............... CFS
  Process Models:
    Rainfall/Runoff ........ NO
    RDII ................... NO
    Snowmelt ............... NO
    Groundwater ............ NO
    Flow Routing ........... YES
    Ponding Allowed ........ NO
    Water Quality .......... NO
  Flow Routing Method ...... DYNWAVE
  Surcharge Method ......... EXTRAN
  Starting Date ............ 01/01/2002 00:00:00
  Ending Date .............. 01/01/2002 08:00:00
  Antecedent Dry Days ...... 0.0
  Report Time Step ......... 00:15:00
  Routing Time Step ........ 20.00 sec
  Variable Time Step ....... NO
  Maximum Trials ........... 8
  Number of Threads ........ 1
  Head Tolerance ........... 0.005000 ft
  
  
  **************************        Volume        Volume
  Flow Routing Continuity        acre-feet      10^6 gal
  **************************     ---------     ---------
  Dry Weather Inflow .......         0.000         0.000
  Wet Weather Inflow .......         0.000         0.000
  Groundwater Inflow .......         0.000         0.000
  RDII Inflow ..............         0.000         0.000
  External Inflow ..........        33.470        10.907
  External Outflow .........         1.017         0.332
  Flooding Loss ............        32.386        10.553
  Evaporation Loss .........         0.000         0.000
  Exfiltration Loss ........         0.000         0.000
  Initial Stored Volume ....         0.000         0.000
  Final Stored Volume ......         0.110         0.036
  Continuity Error (%) .....        -0.129
  
  
  *************************
  Highest Continuity Errors
  *************************
  Node 10309 (2.17%)
  Node 16009 (1.70%)
  Node 16109 (1.53%)
  
  
  ********************************
  Highest Flow Instability Indexes
  ********************************
  Link 1600 (7)
  Link 1630 (6)
  Link 8100 (1)
  Link 8130 (1)
  
  
  *************************
  Routing Time Step Summary
  *************************
  Minimum Time Step           :    20.00 sec
  Average Time Step           :    20.00 sec
  Maximum Time Step           :    20.00 sec
  Percent in Steady State     :     0.00
  Average Iterations per Step :     3.15
  Percent Not Converging      :    10.35
  
  
  ******************
  Node Depth Summary
  ******************
  
  ---------------------------------------------------------------------------------
                                 Average  Maximum  Maximum  Time of Max    Reported
                                   Depth    Depth      HGL   Occurrence   Max Depth
  Node                 Type         Feet     Feet     Feet  days hr:min        Feet
  ---------------------------------------------------------------------------------
  80408                JUNCTION     5.38    13.40   138.00     0  00:03       13.40
  80608                JUNCTION     6.57    16.70   135.00     0  00:12       16.70
  81009                JUNCTION     3.54     8.80   137.00     0  00:05        8.80
  81309                JUNCTION     3.32    12.50   130.00     0  00:46       10.68
  82309                JUNCTION    17.78    42.70   155.00     0  00:11       42.70
  10309                JUNCTION     4.39     9.40   111.00     0  01:18        9.40
  15009                JUNCTION     3.01    13.50   125.00     0  01:26       10.62
  16009                JUNCTION     4.82    11.20   113.20     0  01:26       11.00
  16109                JUNCTION     4.58    11.27   114.07     0  01:26       11.00
  10208                OUTFALL      0.40     0.54    90.44     0  01:28        0.54
  
  
  *******************
  Node Inflow Summary
  *******************
  
  -------------------------------------------------------------------------------------------------
                                  Maximum  Maximum                  Lateral       Total        Flow
                                  Lateral    Total  Time of Max      Inflow      Inflow     Balance
                                   Inflow   Inflow   Occurrence      Volume      Volume       Error
  Node                 Type           CFS      CFS  days hr:min    10^6 gal    10^6 gal     Percent
  -------------------------------------------------------------------------------------------------
  80408                JUNCTION     45.00    45.00     0  00:15        3.64        3.64      -0.032
  80608                JUNCTION      0.00    10.58     0  00:12           0       0.566       0.324
  81009                JUNCTION     50.00    50.00     0  00:15        4.04        4.04      -0.017
  81309                JUNCTION      0.00     2.86     0  00:46           0       0.197       0.676
  82309                JUNCTION     40.00    40.00     0  00:15        3.23        3.25      -0.041
  10309                JUNCTION      0.00     3.90     0  01:26           0       0.422       2.217
  15009                JUNCTION      0.00     2.54     0  01:25           0       0.195       0.869
  16009                JUNCTION      0.00     3.89     0  01:30           0        0.43       1.729
  16109                JUNCTION      0.00     2.13     0  01:03           0        0.24       1.557
  10208                OUTFALL       0.00     2.26     0  01:28           0       0.331       0.000
  
  
  **********************
  Node Surcharge Summary
  **********************
  
  Surcharging occurs when water rises above the top of the highest conduit.
  ---------------------------------------------------------------------
                                               Max. Height   Min. Depth
                                   Hours       Above Crown    Below Rim
  Node                 Type      Surcharged           Feet         Feet
  ---------------------------------------------------------------------
  80408                JUNCTION        3.21         12.400        0.000
  80608                JUNCTION        3.26         15.700        0.000
  81009                JUNCTION        3.16          7.800        0.000
  81309                JUNCTION        2.70         11.500        0.000
  82309                JUNCTION        4.01         39.500        0.000
  10309                JUNCTION        5.42          8.400        0.000
  15009                JUNCTION        2.71         12.500        0.000
  16009                JUNCTION        5.30         10.198        6.802
  16109                JUNCTION        4.58         10.269       10.931
  
  
  *********************
  Node Flooding Summary
  *********************
  
  Flooding refers to all water that overflows a node, whether it ponds or not.
  --------------------------------------------------------------------------
                                                             Total   Maximum
                                 Maximum   Time of Max       Flood    Ponded
                        Hours       Rate    Occurrence      Volume     Depth
  Node                 Flooded       CFS   days hr:min    10^6 gal      Feet
  --------------------------------------------------------------------------
  80408                   3.19     43.06      0  00:25       3.454     0.000
  80608                   3.05      9.87      0  00:12       0.542     0.000
  81009                   3.16     48.18      0  00:15       3.843     0.000
  81309                   0.02      1.36      0  00:46       0.000     0.000
  82309                   3.03     34.25      0  00:15       2.632     0.000
  10309                   2.12      1.64      0  01:27       0.082     0.000
  15009                   0.01      1.30      0  01:26       0.000     0.000
  
  
  ***********************
  Outfall Loading Summary
  ***********************
  
  -----------------------------------------------------------
                         Flow       Avg       Max       Total
                         Freq      Flow      Flow      Volume
  Outfall Node           Pcnt       CFS       CFS    10^6 gal
  -----------------------------------------------------------
  10208                 91.94      1.67      2.26       0.331
  -----------------------------------------------------------
  System                91.94      1.67      2.26       0.331
  
  
  ********************
  Link Flow Summary
  ********************
  
  -----------------------------------------------------------------------------
                                 Maximum  Time of Max   Maximum    Max/    Max/
                                  |Flow|   Occurrence   |Veloc|    Full    Full
  Link                 Type          CFS  days hr:min    ft/sec    Flow   Depth
  -----------------------------------------------------------------------------
  8040                 CONDUIT      4.76     0  00:12      6.59    1.69    1.00
  8060                 CONDUIT      5.82     0  00:12      6.13    2.86    1.00
  8100                 CONDUIT      2.86     0  00:46      3.47    1.31    1.00
  8130                 CONDUIT      2.54     0  01:25      3.36    1.29    1.00
  1030                 CONDUIT      2.26     0  01:28      2.93    0.99    0.77
  1570                 CONDUIT      2.00     0  03:14      2.00    0.99    1.00
  1600                 CONDUIT      2.13     0  01:06      2.14    1.12    1.00
  1630                 CONDUIT      3.90     0  01:26      4.67    2.24    1.00
  1602                 CONDUIT      2.13     0  01:03      2.13    2.32    1.00
  
  
  ***************************
  Flow Classification Summary
  ***************************
  
  -------------------------------------------------------------------------------------
                      Adjusted    ---------- Fraction of Time in Flow Class ---------- 
                       /Actual         Up    Down  Sub   Sup   Up    Down  Norm  Inlet 
  Conduit               Length    Dry  Dry   Dry   Crit  Crit  Crit  Crit  Ltd   Ctrl  
  -------------------------------------------------------------------------------------
  8040                    1.00   0.00  0.00  0.00  0.98  0.02  0.00  0.00  0.58  0.00
  8060                    1.00   0.00  0.00  0.00  0.66  0.00  0.00  0.34  0.20  0.00
  8100                    1.00   0.00  0.00  0.00  1.00  0.00  0.00  0.00  0.58  0.00
  8130                    1.00   0.00  0.00  0.00  1.00  0.00  0.00  0.00  0.51  0.00
  1030                    1.00   0.03  0.00  0.00  0.97  0.00  0.00  0.00  0.00  0.00
  1570                    1.00   0.01  0.00  0.00  0.99  0.00  0.00  0.00  0.49  0.00
  1600                    1.00   0.00  0.00  0.00  1.00  0.00  0.00  0.00  0.21  0.00
  1630                    1.00   0.01  0.00  0.00  0.99  0.00  0.00  0.00  0.01  0.00
  1602                    1.00   0.00  0.00  0.00  1.00  0.00  0.00  0.00  0.00  0.00
  
  
  *************************
  Conduit Surcharge Summary
  *************************
  
  ----------------------------------------------------------------------------
                                                           Hours        Hours 
                         --------- Hours Full --------   Above Full   Capacity
  Conduit                Both Ends  Upstream  Dnstream   Normal Flow   Limited
  ----------------------------------------------------------------------------
  8040                        3.06      3.21      3.26      0.14         0.01
  8060                        3.26      3.26      4.01      3.05         0.01
  8100                        2.48      3.16      2.70      0.78         0.48
  8130                        2.04      2.70      2.71      2.45         1.81
  1030                        0.01      5.42      0.01      0.01         0.01
  1570                        2.71      2.71      5.30      0.01         0.01
  1600                        4.52      4.58      5.30      2.12         2.07
  1630                        5.13      5.30      5.42      3.94         3.76
  1602                        4.58      6.34      4.58      3.91         2.82
  

  Analysis begun on:  Wed Jan 02 09:01:38 2019
  Analysis ended on:  Wed Jan 02 09:01:38 2019
  Total elapsed time: < 1 sec