
  EPA STORM WATER MANAGEMENT MODEL - VERSION 5.1 (Build 5.1.013)
  --------------------------------------------------------------

  Example 1 of Extran Manual 
  
  
  *************
  Element Count
  *************
  Number of rain gages ...... 0
  Number of subcatchments ... 0
  Number of nodes ........... 10
  Number of links ........... 9
  Number of pollutants ...... 0
  Number of land uses ....... 0
  
  
  ************
  Node Summary
  ************
                                           Invert      Max.    Ponded    External
  Name                 Type                 Elev.     Depth      Area    Inflow  
  -------------------------------------------------------------------------------
  80408                JUNCTION            124.60     13.40       0.0    Yes
  80608                JUNCTION            118.30     16.70       0.0
  81009                JUNCTION            128.20      8.80       0.0    Yes
  81309                JUNCTION            117.50     12.50       0.0
  82309                JUNCTION            112.30     42.70       0.0    Yes
  10309                JUNCTION            101.60      9.40       0.0
  15009                JUNCTION            111.50     13.50       0.0
  16009                JUNCTION            102.00     18.00       0.0
  16109                JUNCTION            102.80     22.20       0.0
  10208                OUTFALL              89.90      0.00       0.0
  
  
  ************
  Link Summary
  ************
  Name             From Node        To Node          Type            Length    %Slope Roughness
  ---------------------------------------------------------------------------------------------
  8040             80408            80608            CONDUIT         1800.0    0.3500    0.0150
  8060             80608            82309            CONDUIT         2075.0    0.1831    0.0150
  8100             81009            81309            CONDUIT         5100.0    0.2098    0.0150
  8130             81309            15009            CONDUIT         3500.0    0.1714    0.0150
  1030             10309            10208            CONDUIT         4500.0    0.2600    0.0160
  1570             15009            16009            CONDUIT         5000.0    0.1900    0.0154
  1600             16109            16009            CONDUIT          500.0    0.1600    0.0150
  1630             16009            10309            CONDUIT          300.0    0.1333    0.0150
  1602             82309            16109            CONDUIT         5000.0    0.1900    0.0340
  
  
  *********************
  Cross Section Summary
  *********************
                                        Full     Full     Hyd.     Max.   No. of     Full
  Conduit          Shape               Depth     Area     Rad.    Width  Barrels     Flow
  ---------------------------------------------------------------------------------------
  8040             DUMMY                0.00     0.00     0.00     0.00        1     0.00
  8060             DUMMY                0.00     0.00     0.00     0.00        1     0.00
  8100             DUMMY                0.00     0.00     0.00     0.00        1     0.00
  8130             DUMMY                0.00     0.00     0.00     0.00        1     0.00
  1030             DUMMY                0.00     0.00     0.00     0.00        1     0.00
  1570             DUMMY                0.00     0.00     0.00     0.00        1     0.00
  1600             DUMMY                0.00     0.00     0.00     0.00        1     0.00
  1630             DUMMY                0.00     0.00     0.00     0.00        1     0.00
  1602             DUMMY                0.00     0.00     0.00     0.00        1     0.00
  
  
  
  *********************************************************
  NOTE: The summary statistics displayed in this report are
  based on results found at every computational time step,  
  not just on results from each reporting time step.
  *********************************************************
  
  ****************
  Analysis Options
  ****************
  Flow Units ............... CFS
  Process Models:
    Rainfall/Runoff ........ NO
    RDII ................... NO
    Snowmelt ............... NO
    Groundwater ............ NO
    Flow Routing ........... YES
    Ponding Allowed ........ NO
    Water Quality .......... NO
  Flow Routing Method ...... KINWAVE
  Starting Date ............ 01/01/2002 00:00:00
  Ending Date .............. 01/01/2002 08:00:00
  Antecedent Dry Days ...... 0.0
  Report Time Step ......... 00:15:00
  Routing Time Step ........ 20.00 sec
  
  
  *********************
  Control Actions Taken
  *********************

  
  **************************        Volume        Volume
  Flow Routing Continuity        acre-feet      10^6 gal
  **************************     ---------     ---------
  Dry Weather Inflow .......         0.000         0.000
  Wet Weather Inflow .......         0.000         0.000
  Groundwater Inflow .......         0.000         0.000
  RDII Inflow ..............         0.000         0.000
  External Inflow ..........        33.470        10.907
  External Outflow .........        33.470        10.907
  Flooding Loss ............         0.000         0.000
  Evaporation Loss .........         0.000         0.000
  Exfiltration Loss ........         0.000         0.000
  Initial Stored Volume ....         0.000         0.000
  Final Stored Volume ......         0.000         0.000
  Continuity Error (%) .....         0.000
  
  
  ********************************
  Highest Flow Instability Indexes
  ********************************
  All links are stable.
  
  
  *************************
  Routing Time Step Summary
  *************************
  Minimum Time Step           :    20.00 sec
  Average Time Step           :    20.00 sec
  Maximum Time Step           :    20.00 sec
  Percent in Steady State     :     0.00
  Average Iterations per Step :     1.00
  Percent Not Converging      :     0.00
  
  
  ******************
  Node Depth Summary
  ******************
  
  ---------------------------------------------------------------------------------
                                 Average  Maximum  Maximum  Time of Max    Reported
                                   Depth    Depth      HGL   Occurrence   Max Depth
  Node                 Type         Feet     Feet     Feet  days hr:min        Feet
  ---------------------------------------------------------------------------------
  80408                JUNCTION     0.00     0.00   124.60     0  00:00        0.00
  80608                JUNCTION     0.00     0.00   118.30     0  00:00        0.00
  81009                JUNCTION     0.00     0.00   128.20     0  00:00        0.00
  81309                JUNCTION     0.00     0.00   117.50     0  00:00        0.00
  82309                JUNCTION     2.20     2.20   114.50     0  00:00        2.20
  10309                JUNCTION     0.00     0.00   101.60     0  00:00        0.00
  15009                JUNCTION     0.00     0.00   111.50     0  00:00        0.00
  16009                JUNCTION     0.00     0.00   102.00     0  00:00        0.00
  16109                JUNCTION     0.00     0.00   102.80     0  00:00        0.00
  10208                OUTFALL      0.00     0.00    89.90     0  00:00        0.00
  
  
  *******************
  Node Inflow Summary
  *******************
  
  -------------------------------------------------------------------------------------------------
                                  Maximum  Maximum                  Lateral       Total        Flow
                                  Lateral    Total  Time of Max      Inflow      Inflow     Balance
                                   Inflow   Inflow   Occurrence      Volume      Volume       Error
  Node                 Type           CFS      CFS  days hr:min    10^6 gal    10^6 gal     Percent
  -------------------------------------------------------------------------------------------------
  80408                JUNCTION     45.00    45.00     0  00:15        3.64        3.64       0.000
  80608                JUNCTION      0.00    45.00     0  00:15           0        3.64       0.000
  81009                JUNCTION     50.00    50.00     0  00:15        4.04        4.04       0.000
  81309                JUNCTION      0.00    50.00     0  00:15           0        4.04       0.000
  82309                JUNCTION     40.00    85.00     0  00:15        3.23        6.87       0.000
  10309                JUNCTION      0.00   135.00     0  00:15           0        10.9       0.000
  15009                JUNCTION      0.00    50.00     0  00:15           0        4.04       0.000
  16009                JUNCTION      0.00   135.00     0  00:15           0        10.9       0.000
  16109                JUNCTION      0.00    85.00     0  00:15           0        6.87       0.000
  10208                OUTFALL       0.00   135.00     0  00:15           0        10.9       0.000
  
  
  *********************
  Node Flooding Summary
  *********************
  
  No nodes were flooded.
  
  
  ***********************
  Outfall Loading Summary
  ***********************
  
  -----------------------------------------------------------
                         Flow       Avg       Max       Total
                         Freq      Flow      Flow      Volume
  Outfall Node           Pcnt       CFS       CFS    10^6 gal
  -----------------------------------------------------------
  10208                 40.56    124.83    135.00      10.906
  -----------------------------------------------------------
  System                40.56    124.83    135.00      10.906
  
  
  ********************
  Link Flow Summary
  ********************
  
  -----------------------------------------------------------------------------
                                 Maximum  Time of Max   Maximum    Max/    Max/
                                  |Flow|   Occurrence   |Veloc|    Full    Full
  Link                 Type          CFS  days hr:min    ft/sec    Flow   Depth
  -----------------------------------------------------------------------------
  8040                 DUMMY       45.00     0  00:15
  8060                 DUMMY       45.00     0  00:15
  8100                 DUMMY       50.00     0  00:15
  8130                 DUMMY       50.00     0  00:15
  1030                 DUMMY      135.00     0  00:15
  1570                 DUMMY       50.00     0  00:15
  1600                 DUMMY       85.00     0  00:15
  1630                 DUMMY      135.00     0  00:15
  1602                 DUMMY       85.00     0  00:15
  
  
  *************************
  Conduit Surcharge Summary
  *************************
  
  No conduits were surcharged.
  

  Analysis begun on:  Wed Jan 02 08:53:57 2019
  Analysis ended on:  Wed Jan 02 08:53:57 2019
  Total elapsed time: < 1 sec