
  EPA STORM WATER MANAGEMENT MODEL - VERSION 5.1 (Build 5.1.013)
  --------------------------------------------------------------

  Scenario Run :  BASE 
  Scenario Run :  NRCSDMENSIONLESS 
  
  
  *************
  Element Count
  *************
  Number of rain gages ...... 2
  Number of subcatchments ... 23
  Number of nodes ........... 6
  Number of links ........... 5
  Number of pollutants ...... 0
  Number of land uses ....... 0
  
  
  ****************
  Raingage Summary
  ****************
                                                      Data       Recording
  Name                 Data Source                    Type       Interval 
  ------------------------------------------------------------------------
  GAGE1                25YEAR                         INTENSITY   60 min.
  GAGE500YEAR          500YEAR                        INTENSITY   60 min.
  
  
  ********************
  Subcatchment Summary
  ********************
  Name                       Area     Width   %Imperv    %Slope Rain Gage            Outlet              
  -----------------------------------------------------------------------------------------------------------
  45                         1.07    500.00      0.00    1.0000 GAGE1                C                   
  47.5                       0.50    500.00      0.00    1.0000 GAGE1                B                   
  50                         0.69    500.00      0.00    1.0000 GAGE1                B                   
  52.5                       1.41    500.00      0.00    1.0000 GAGE1                B                   
  55                         0.58    500.00      0.00    1.0000 GAGE1                C                   
  57.5                       0.79    500.00      0.00    1.0000 GAGE1                C                   
  60                         1.33    500.00      0.00    1.0000 GAGE1                C                   
  62.5                       1.20    500.00      0.00    1.0000 GAGE1                B                   
  65                         1.18    500.00      0.00    1.0000 GAGE1                B                   
  67.5                       0.39    500.00      0.00    1.0000 GAGE1                B                   
  70                         0.31    500.00      0.00    1.0000 GAGE1                B                   
  72.5                       0.96    500.00      0.00    1.0000 GAGE1                B                   
  75                         1.29    500.00      0.00    1.0000 GAGE1                B                   
  77.5                       3.22    500.00      0.00    1.0000 GAGE1                B                   
  80                         2.30    500.00      0.00    1.0000 GAGE1                B                   
  82.5                       1.90    500.00      0.00    1.0000 GAGE1                B                   
  85                         1.08    500.00      0.00    1.0000 GAGE1                B                   
  87.5                       2.43    500.00      0.00    1.0000 GAGE1                B                   
  90                         7.27    500.00      0.00    1.0000 GAGE1                B                   
  92.5                       6.54    500.00      0.00    1.0000 GAGE1                B                   
  95                         8.13    200.00      0.00    1.0000 GAGE1                G                   
  96.5                       3.62    600.00      0.00    1.0000 GAGE1                C                   
  98                        11.68    600.00      0.00    1.0000 GAGE1                A                   
  
  
  ************
  Node Summary
  ************
                                           Invert      Max.    Ponded    External
  Name                 Type                 Elev.     Depth      Area    Inflow  
  -------------------------------------------------------------------------------
  A                    JUNCTION              1.10     20.00       0.0    Yes
  B                    JUNCTION              9.00     20.00       0.0    Yes
  C                    JUNCTION              8.00      6.00       0.0    Yes
  E                    JUNCTION              0.50      4.00       0.0
  G                    JUNCTION              3.00      5.00       0.0    Yes
  OUTLET               OUTFALL               0.00      0.30       0.0
  
  
  ************
  Link Summary
  ************
  Name             From Node        To Node          Type            Length    %Slope Roughness
  ---------------------------------------------------------------------------------------------
  A                A                E                CONDUIT          220.0    0.2727    0.0150
  B                G                A                CONDUIT          182.8    1.0396    0.0150
  C                B                C                CONDUIT          505.0    0.1980    0.0240
  D                C                G                CONDUIT          263.3    1.8996    0.0240
  F                E                OUTLET           CONDUIT          255.2    0.1959    0.0150
  
  
  *********************
  Cross Section Summary
  *********************
                                        Full     Full     Hyd.     Max.   No. of     Full
  Conduit          Shape               Depth     Area     Rad.    Width  Barrels     Flow
  ---------------------------------------------------------------------------------------
  A                CIRCULAR             0.30     0.07     0.07     0.30        1     0.07
  B                CIRCULAR             0.30     0.07     0.07     0.30        1     0.13
  C                CIRCULAR             0.30     0.07     0.07     0.30        1     0.03
  D                CIRCULAR             0.30     0.07     0.07     0.30        1     0.11
  F                CIRCULAR             0.30     0.07     0.07     0.30        1     0.06
  
  
  *************
  Shape Summary
  *************

  Shape CUNETTE
  Area:  
              0.0021     0.0070     0.0134     0.0209     0.0293 
              0.0384     0.0483     0.0588     0.0699     0.0814 
              0.0934     0.1058     0.1185     0.1315     0.1449 
              0.1653     0.1930     0.2210     0.2494     0.2781 
              0.3071     0.3362     0.3654     0.3948     0.4242 
              0.4536     0.4829     0.5122     0.5413     0.5703 
              0.5989     0.6273     0.6554     0.6830     0.7102 
              0.7369     0.7630     0.7885     0.8132     0.8372 
              0.8603     0.8823     0.9033     0.9231     0.9415 
              0.9583     0.9733     0.9860     0.9959     1.0000 
  Hrad:  
              0.0455     0.1052     0.1583     0.2070     0.2522 
              0.2943     0.3337     0.3707     0.4056     0.4386 
              0.4697     0.4992     0.5272     0.5536     0.5787 
              0.4151     0.4690     0.5207     0.5703     0.6179 
              0.6636     0.7073     0.7492     0.7893     0.8275 
              0.8639     0.8985     0.9314     0.9623     0.9915 
              1.0188     1.0443     1.0678     1.0895     1.1091 
              1.1267     1.1422     1.1555     1.1665     1.1752 
              1.1813     1.1847     1.1852     1.1825     1.1761 
              1.1654     1.1495     1.1265     1.0918     1.0000 
  Width: 
              0.1400     0.1960     0.2375     0.2713     0.3000 
              0.3250     0.3470     0.3666     0.3842     0.4000 
              0.4143     0.4271     0.4386     0.4490     0.4582 
              0.9330     0.9474     0.9600     0.9708     0.9798 
              0.9871     0.9928     0.9968     0.9992     1.0000 
              0.9992     0.9968     0.9928     0.9871     0.9798 
              0.9708     0.9600     0.9474     0.9330     0.9165 
              0.8980     0.8773     0.8542     0.8285     0.8000 
              0.7684     0.7332     0.6940     0.6499     0.6000 
              0.5426     0.4750     0.3919     0.2800     0.0000 
  
  
  
  *********************************************************
  NOTE: The summary statistics displayed in this report are
  based on results found at every computational time step,  
  not just on results from each reporting time step