
  EPA STORM WATER MANAGEMENT MODEL - VERSION 5.1 (Build 5.1.013)
  --------------------------------------------------------------

  Scenario Run :  NRCSDMENSIONLESS 
  
  
  *************
  Element Count
  *************
  Number of rain gages ...... 2
  Number of subcatchments ... 23
  Number of nodes ........... 6
  Number of links ........... 5
  Number of pollutants ...... 0
  Number of land uses ....... 0
  
  
  ****************
  Raingage Summary
  ****************
                                                      Data       Recording
  Name                 Data Source                    Type       Interval 
  ------------------------------------------------------------------------
  GAGE1                25YEAR                         INTENSITY   60 min.
  GAGE500YEAR          500YEAR                        INTENSITY   60 min.
  
  
  ********************
  Subcatchment Summary
  ********************
  Name                       Area     Width   %Imperv    %Slope Rain Gage            Outlet              
  -----------------------------------------------------------------------------------------------------------
  45                         1.07    500.00      0.00    1.0000 GAGE1                C                   
  47.5                       0.50    500.00      0.00    1.0000 GAGE1                B                   
  50                         0.69    500.00      0.00    1.0000 GAGE1                B                   
  52.5                       1.41    500.00      0.00    1.0000 GAGE1                B                   
  55                         0.58    500.00      0.00    1.0000 GAGE1                C                   
  57.5                       0.79    500.00      0.00    1.0000 GAGE1                C                   
  60                         1.33    500.00      0.00    1.0000 GAGE1                C                   
  62.5                       1.20    500.00      0.00    1.0000 GAGE1                B                   
  65                         1.18    500.00      0.00    1.0000 GAGE1                B                   
  67.5                       0.39    500.00      0.00    1.0000 GAGE1                B                   
  70                         0.31    500.00      0.00    1.0000 GAGE1                B                   
  72.5                       0.96    500.00      0.00    1.0000 GAGE1                B                   
  75                         1.29    500.00      0.00    1.0000 GAGE1                B                   
  77.5                       3.22    500.00      0.00    1.0000 GAGE1                B                   
  80                         2.30    500.00      0.00    1.0000 GAGE1                B                   
  82.5                       1.90    500.00      0.00    1.0000 GAGE1                B                   
  85                         1.08    500.00      0.00    1.0000 GAGE1                B                   
  87.5                       2.43    500.00      0.00    1.0000 GAGE1                B                   
  90                         7.27    500.00      0.00    1.0000 GAGE1                B                   
  92.5                       6.54    500.00      0.00    1.0000 GAGE1                B                   
  95                         8.13    200.00      0.00    1.0000 GAGE1                G                   
  96.5                       3.62    600.00      0.00    1.0000 GAGE1                C                   
  98                        11.68    600.00      0.00    1.0000 GAGE1                A                   
  
  
  ************
  Node Summary
  ************
                                           Invert      Max.    Ponded    External
  Name                 Type                 Elev.     Depth      Area    Inflow  
  -------------------------------------------------------------------------------
  A                    JUNCTION              1.10     20.00       0.0    Yes
  B                    JUNCTION              9.00     20.00       0.0    Yes
  C                    JUNCTION              8.00      6.00       0.0    Yes
  E                    JUNCTION              0.50      4.00       0.0
  G                    JUNCTION              3.00      5.00       0.0    Yes
  OUTLET               OUTFALL               0.00      0.30       0.0
  
  
  ************
  Link Summary
  ************
  Name             From Node        To Node          Type            Length    %Slope Roughness
  ---------------------------------------------------------------------------------------------
  A                A                E                CONDUIT          220.0    0.2727    0.0150
  B                G                A                CONDUIT          182.8    1.0396    0.0150
  C                B                C                CONDUIT          505.0    0.1980    0.0240
  D                C                G                CONDUIT          263.3    1.8996    0.0240
  F                E                OUTLET           CONDUIT          255.2    0.1959    0.0150
  
  
  *********************
  Cross Section Summary
  *********************
                                        Full     Full     Hyd.     Max.   No. of     Full
  Conduit          Shape               Depth     Area     Rad.    Width  Barrels     Flow
  ---------------------------------------------------------------------------------------
  A                CIRCULAR             0.30     0.07     0.07     0.30        1     0.07
  B                CIRCULAR             0.30     0.07     0.07     0.30        1     0.13
  C                CIRCULAR             0.30     0.07     0.07     0.30        1     0.03
  D                CIRCULAR             0.30     0.07     0.07     0.30        1     0.11
  F                CIRCULAR             0.30     0.07     0.07     0.30        1     0.06
  
  
  *************
  Shape Summary
  *************

  Shape CUNETTE
  Area:  
              0.0021     0.0070     0.0134     0.0209     0.0293 
              0.0384     0.0483     0.0588     0.0699     0.0814 
              0.0934     0.1058     0.1185     0.1315     0.1449 
              0.1653     0.1930     0.2210     0.2494     0.2781 
              0.3071     0.3362     0.3654     0.3948     0.4242 
              0.4536     0.4829     0.5122     0.5413     0.5703 
              0.5989     0.6273     0.6554     0.6830     0.7102 
              0.7369     0.7630     0.7885     0.8132     0.8372 
              0.8603     0.8823     0.9033     0.9231     0.9415 
              0.9583     0.9733     0.9860     0.9959     1.0000 
  Hrad:  
              0.0455     0.1052     0.1583     0.2070     0.2522 
              0.2943     0.3337     0.3707     0.4056     0.4386 
              0.4697     0.4992     0.5272     0.5536     0.5787 
              0.4151     0.4690     0.5207     0.5703     0.6179 
              0.6636     0.7073     0.7492     0.7893     0.8275 
              0.8639     0.8985     0.9314     0.9623     0.9915 
              1.0188     1.0443     1.0678     1.0895     1.1091 
              1.1267     1.1422     1.1555     1.1665     1.1752 
              1.1813     1.1847     1.1852     1.1825     1.1761 
              1.1654     1.1495     1.1265     1.0918     1.0000 
  Width: 
              0.1400     0.1960     0.2375     0.2713     0.3000 
              0.3250     0.3470     0.3666     0.3842     0.4000 
              0.4143     0.4271     0.4386     0.4490     0.4582 
              0.9330     0.9474     0.9600     0.9708     0.9798 
              0.9871     0.9928     0.9968     0.9992     1.0000 
              0.9992     0.9968     0.9928     0.9871     0.9798 
              0.9708     0.9600     0.9474     0.9330     0.9165 
              0.8980     0.8773     0.8542     0.8285     0.8000 
              0.7684     0.7332     0.6940     0.6499     0.6000 
              0.5426     0.4750     0.3919     0.2800     0.0000 
  
  
  
  *********************************************************
  NOTE: The summary statistics displayed in this report are
  based on results found at every computational time step,  
  not just on results from each reporting time step.
  *********************************************************
  
  ****************
  Analysis Options
  ****************
  Flow Units ............... CFS
  Process Models:
    Rainfall/Runoff ........ YES
    RDII ................... YES
    Snowmelt ............... NO
    Groundwater ............ NO
    Flow Routing ........... YES
    Ponding Allowed ........ NO
    Water Quality .......... NO
  Infiltration Method ...... CURVE_NUMBER
  Flow Routing Method ...... DYNWAVE
  Surcharge Method ......... EXTRAN
  Starting Date ............ 07/15/1977 00:00:00
  Ending Date .............. 07/16/1977 06:00:00
  Antecedent Dry Days ...... 7.0
  Report Time Step ......... 00:01:00
  Wet Time Step ............ 00:05:00
  Dry Time Step ............ 00:05:00
  Routing Time Step ........ 10.00 sec
  Variable Time Step ....... YES
  Maximum Trials ........... 4
  Number of Threads ........ 1
  Head Tolerance ........... 0.005000 ft
  
  
  **************************        Volume         Depth
  Runoff Quantity Continuity     acre-feet        inches
  **************************     ---------       -------
  Total Precipitation ......        24.941         5.000
  Evaporation Loss .........         0.000         0.000
  Infiltration Loss ........         7.489         1.501
  Surface Runoff ...........        17.694         3.547
  Final Storage ............         0.193         0.039
  Continuity Error (%) .....        -1.742
  
  
  **************************        Volume        Volume
  Flow Routing Continuity        acre-feet      10^6 gal
  **************************     ---------     ---------
  Dry Weather Inflow .......         0.310         0.101
  Wet Weather Inflow .......        17.694         5.766
  Groundwater Inflow .......         0.000         0.000
  RDII Inflow ..............         0.000         0.000
  External Inflow ..........         0.000         0.000
  External Outflow .........         0.311         0.101
  Flooding Loss ............        17.688         5.764
  Evaporation Loss .........         0.000         0.000
  Exfiltration Loss ........         0.001         0.000
  Initial Stored Volume ....         0.000         0.000
  Final Stored Volume ......         0.002         0.001
  Continuity Error (%) .....         0.007
  
  
  ***************************
  Time-Step Critical Elements
  ***************************
  None
  
  
  ********************************
  Highest Flow Instability Indexes
  ********************************
  All links are stable.
  
  
  *************************
  Routing Time Step Summary
  *************************
  Minimum Time Step           :     1.20 sec
  Average Time Step           :    10.00 sec
  Maximum Time Step           :    10.00 sec
  Percent in Steady State     :     0.00
  Average Iterations per Step :     2.01
  Percent Not Converging      :     0.39
  
  
  ***************************
  Subcatchment Runoff Summary
  ***************************
  
  ------------------------------------------------------------------------------------------------------------------------------
                            Total      Total      Total      Total     Imperv       Perv      Total       Total     Peak  Runoff
                           Precip      Runon       Evap      Infil     Runoff     Runoff     Runoff      Runoff   Runoff   Coeff
  Subcatchment                 in         in         in         in         in         in         in    10^6 gal      CFS
  ------------------------------------------------------------------------------------------------------------------------------
  45                         5.00       0.00       0.00       5.00       0.00       0.00       0.00        0.00     0.00   0.000
  47.5                       5.00       0.00       0.00       5.00       0.00       0.00       0.00        0.00     0.00   0.000
  50                         5.00       0.00       0.00       5.00       0.00       0.00       0.00        0.00     0.00   0.000
  52.5                       5.00       0.00       0.00       5.00       0.00       0.00       0.00        0.00     0.00   0.000
  55                         5.00       0.00       0.00       4.74       0.00       0.49       0.49        0.01     1.76   0.098
  57.5                       5.00       0.00       0.00       4.46       0.00       0.76       0.76        0.02     2.53   0.151
  60                         5.00       0.00       0.00       4.19       0.00       1.03       1.03        0.04     4.44   0.206
  62.5                       5.00       0.00       0.00       3.89       0.00       1.08       1.08        0.04     4.19   0.216
  65                         5.00       0.00       0.00       3.64       0.00       1.38       1.38        0.04     4.30   0.277
  67.5                       5.00       0.00       0.00       3.40       0.00       1.69       1.69        0.02     1.46   0.339
  70                         5.00       0.00       0.00       3.14       0.00       2.01       2.01        0.02     1.21   0.402
  72.5                       5.00       0.00       0.00       2.89       0.00       2.10       2.10        0.06     3.91   0.421
  75                         5.00       0.00       0.00       2.63       0.00       2.44       2.44        0.09     5.39   0.489
  77.5                       5.00       0.00       0.00       2.37       0.00       2.79       2.79        0.24    13.90   0.557
  80                         5.00       0.00       0.00       2.16       0.00       2.92       2.92        0.18    10.21   0.583
  82.5                       5.00       0.00       0.00       1.88       0.00       3.28       3.28        0.17     8.65   0.655
  85                         5.00       0.00       0.00       1.61       0.00       3.43       3.43        0.10     5.07   0.686
  87.5                       5.00       0.00       0.00       1.35       0.00       3.79       3.79        0.25    11.59   0.759
  90                         5.00       0.00       0.00       1.09       0.00       3.98       3.98        0.79    35.37   0.795
  92.5                       5.00       0.00       0.00       0.81       0.00       4.16       4.16        0.74    32.29   0.832
  95                         5.00       0.00       0.00       0.53       0.00       4.52       4.52        1.00    40.60   0.905
  96.5                       5.00       0.00       0.00       0.36       0.00       4.66       4.66        0.46    18.15   0.932
  98                         5.00       0.00       0.00       0.20       0.00       4.80       4.80        1.52    58.77   0.961
  
  
  ******************
  Node Depth Summary
  ******************
  
  ---------------------------------------------------------------------------------
                                 Average  Maximum  Maximum  Time of Max    Reported
                                   Depth    Depth      HGL   Occurrence   Max Depth
  Node                 Type         Feet     Feet     Feet  days hr:min        Feet
  ---------------------------------------------------------------------------------
  A                    JUNCTION     4.45    20.00    21.10     0  02:00       20.00
  B                    JUNCTION     0.93    20.00    29.00     0  02:05       20.00
  C                    JUNCTION     0.38     6.00    14.00     0  02:00        6.00
  E                    JUNCTION     2.33     4.00     4.50     0  02:00        4.00
  G                    JUNCTION     3.08     5.00     8.00     0  02:00        5.00
  OUTLET               OUTFALL      0.20     0.24     0.24     0  02:00        0.23
  
  
  *******************
  Node Inflow Summary
  *******************
  
  -------------------------------------------------------------------------------------------------
                                  Maximum  Maximum                  Lateral       Total        Flow
                                  Lateral    Total  Time of Max      Inflow      Inflow     Balance
                                   Inflow   Inflow   Occurrence      Volume      Volume       Error
  Node                 Type           CFS      CFS  days hr:min    10^6 gal    10^6 gal     Percent
  -------------------------------------------------------------------------------------------------
  A                    JUNCTION     58.81    58.81     0  03:00        1.55        1.62       0.012
  B                    JUNCTION    137.57   137.57     0  03:00        2.75        2.75       0.017
  C                    JUNCTION     26.90    27.04     0  03:00       0.544       0.572       0.024
  E                    JUNCTION      0.00     0.34     0  02:02           0       0.107       0.130
  G                    JUNCTION     40.63    41.08     0  03:00        1.02        1.09       0.012
  OUTLET               OUTFALL       0.00     0.17     0  02:00           0       0.101       0.000
  
  
  **********************
  Node Surcharge Summary
  **********************
  
  Surcharging occurs when water rises above the top of the highest conduit.
  ---------------------------------------------------------------------
                                               Max. Height   Min. Depth
                                   Hours       Above Crown    Below Rim
  Node                 Type      Surcharged           Feet         Feet
  ---------------------------------------------------------------------
  A                    JUNCTION       29.89         19.700        0.000
  B                    JUNCTION        1.08         19.700        0.000
  C                    JUNCTION        1.35          5.700        0.000
  E                    JUNCTION       29.84          3.700        0.000
  G                    JUNCTION       29.74          4.700        0.000
  
  
  *********************
  Node Flooding Summary
  *********************
  
  Flooding refers to all water that overflows a node, whether it ponds or not.
  --------------------------------------------------------------------------
                                                             Total   Maximum
                                 Maximum   Time of Max       Flood    Ponded
                        Hours       Rate    Occurrence      Volume     Depth
  Node                 Flooded       CFS   days hr:min    10^6 gal      Feet
  --------------------------------------------------------------------------
  A                       1.08     58.13      0  03:00       1.504     0.000
  B                       0.99    137.44      0  03:00       2.721     0.000
  C                       1.07     26.92      0  03:00       0.520     0.000
  E                       1.08      0.18      0  02:00       0.005     0.000
  G                       1.08     41.08      0  03:00       1.013     0.000
  
  
  ***********************
  Outfall Loading Summary
  ***********************
  
  -----------------------------------------------------------
                         Flow       Avg       Max       Total
                         Freq      Flow      Flow      Volume
  Outfall Node           Pcnt       CFS       CFS    10^6 gal
  -----------------------------------------------------------
  OUTLET                99.79      0.13      0.17       0.101
  -----------------------------------------------------------
  System                99.79      0.13      0.17       0.101
  
  
  ********************
  Link Flow Summary
  ********************
  
  -----------------------------------------------------------------------------
                                 Maximum  Time of Max   Maximum    Max/    Max/
                                  |Flow|   Occurrence   |Veloc|    Full    Full
  Link                 Type          CFS  days hr:min    ft/sec    Flow   Depth
  -----------------------------------------------------------------------------
  A                    CONDUIT      0.34     0  02:02      4.84    5.26    1.00
  B                    CONDUIT      0.76     0  02:00     10.73    5.97    1.00
  C                    CONDUIT      0.18     0  02:05      2.52    5.14    1.00
  D                    CONDUIT      0.13     0  02:00      1.85    1.22    1.00
  F                    CONDUIT      0.17     0  02:00      2.48    3.01    0.90
  
  
  ***************************
  Flow Classification Summary
  ***************************
  
  -------------------------------------------------------------------------------------
                      Adjusted    ---------- Fraction of Time in Flow Class ---------- 
                       /Actual         Up    Down  Sub   Sup   Up    Down  Norm  Inlet 
  Conduit               Length    Dry  Dry   Dry   Crit  Crit  Crit  Crit  Ltd   Ctrl  
  -------------------------------------------------------------------------------------
  A                       1.00   0.00  0.00  0.00  1.00  0.00  0.00  0.00  0.00  0.00
  B                       1.00   0.00  0.00  0.00  1.00  0.00  0.00  0.00  0.01  0.00
  C                       1.00   0.00  0.00  0.00  1.00  0.00  0.00  0.00  0.02  0.00
  D                       1.00   0.00  0.00  0.00  1.00  0.00  0.00  0.00  0.93  0.00
  F                       1.00   0.00  0.00  0.00  1.00  0.00  0.00  0.00  0.00  0.00
  
  
  *************************
  Conduit Surcharge Summary
  *************************
  
  ----------------------------------------------------------------------------
                                                           Hours        Hours 
                         --------- Hours Full --------   Above Full   Capacity
  Conduit                Both Ends  Upstream  Dnstream   Normal Flow   Limited
  ----------------------------------------------------------------------------
  A                          29.84     29.89     29.84     29.89        29.84
  B                          29.74     29.74     29.89      1.08         0.01
  C                           1.08      1.08      1.35      1.14         1.00
  D                           1.35      1.35     29.74      1.08         1.07
  F                           0.01     29.84      0.01     29.84         0.01
  

  Analysis begun on:  Wed Jan 02 10:24:42 2019
  Analysis ended on:  Wed Jan 02 10:24:46 2019
  Total elapsed time: 00:00:04