
  EPA STORM WATER MANAGEMENT MODEL - VERSION 5.1 (Build 5.1.012)
  --------------------------------------------------------------

  WARNING 03: negative offset ignored for Link C3
  
  *********************************************************
  NOTE: The summary statistics displayed in this report are
  based on results found at every computational time step,  
  not just on results from each reporting time step.
  *********************************************************
  
  ****************
  Analysis Options
  ****************
  Flow Units ............... GPM
  Process Models:
    Rainfall/Runoff ........ NO
    RDII ................... NO
    Snowmelt ............... NO
    Groundwater ............ NO
    Flow Routing ........... YES
    Ponding Allowed ........ YES
    Water Quality .......... NO
  Flow Routing Method ...... DYNWAVE
  Starting Date ............ 06/01/2012 00:00:00
  Ending Date .............. 06/01/2012 23:55:00
  Antecedent Dry Days ...... 5.0
  Report Time Step ......... 00:00:10
  Routing Time Step ........ 2.00 sec
  Variable Time Step ....... YES
  Maximum Trials ........... 8
  Number of Threads ........ 1
  Head Tolerance ........... 0.000010 ft
  
  
  **************************        Volume        Volume
  Flow Routing Continuity        acre-feet      10^6 gal
  **************************     ---------     ---------
  Dry Weather Inflow .......         0.077         0.025
  Wet Weather Inflow .......         0.000         0.000
  Groundwater Inflow .......         0.000         0.000
  RDII Inflow ..............         0.000         0.000
  External Inflow ..........         0.004         0.001
  External Outflow .........         0.221         0.072
  Flooding Loss ............         0.004         0.001
  Evaporation Loss .........         0.000         0.000
  Exfiltration Loss ........         0.000         0.000
  Initial Stored Volume ....         0.000         0.000
  Final Stored Volume ......         0.018         0.006
  Continuity Error (%) .....      -197.630
  
  
  *************************
  Highest Continuity Errors
  *************************
  Node PS-6 (11.50%)
  Node 71 (10.39%)
  Node PS-3 (9.61%)
  Node 72 (9.27%)
  Node 41 (8.64%)
  
  
  ***************************
  Time-Step Critical Elements
  ***************************
  None
  
  
  ********************************
  Highest Flow Instability Indexes
  ********************************
  All links are stable.
  
  
  *************************
  Routing Time Step Summary
  *************************
  Minimum Time Step           :     2.00 sec
  Average Time Step           :     2.00 sec
  Maximum Time Step           :     2.00 sec
  Percent in Steady State     :     0.00
  Average Iterations per Step :     2.80
  Percent Not Converging      :     8.70
  
  
  ******************
  Node Depth Summary
  ******************
  
  ---------------------------------------------------------------------------------
                                 Average  Maximum  Maximum  Time of Max    Reported
                                   Depth    Depth      HGL   Occurrence   Max Depth
  Node                 Type         Feet     Feet     Feet  days hr:min        Feet
  ---------------------------------------------------------------------------------
  1                    JUNCTION     0.05     0.20   397.83     0  13:51        0.20
  10                   JUNCTION     0.12     0.36   467.78     0  13:21        0.36
  11                   JUNCTION     0.34     0.89   467.43     0  13:21        0.85
  2                    JUNCTION     0.05     0.12   397.29     0  13:53        0.12
  21                   JUNCTION     0.02     0.02   396.48     0  04:47        0.02
  22                   JUNCTION     0.03     0.03   395.15     0  04:51        0.03
  24                   JUNCTION     0.01     0.20   398.46     0  13:51        0.20
  3                    JUNCTION     0.05     0.12   395.20     0  18:31        0.12
  30                   JUNCTION     0.02     0.02   425.28     0  16:18        0.02
  31                   JUNCTION     0.13     0.13   422.23     0  14:45        0.13
  32                   JUNCTION     0.02     0.02   420.50     0  16:46        0.02
  33                   JUNCTION     0.04     0.04   412.13     0  01:55        0.04
  34                   JUNCTION     0.04     0.04   411.58     0  03:52        0.04
  35                   JUNCTION     0.02     0.03   409.89     0  10:47        0.03
  4                    JUNCTION     0.09     0.18   394.22     0  18:33        0.18
  40                   JUNCTION     0.02     0.02   403.11     0  00:04        0.02
  42                   JUNCTION     0.02     0.14   411.52     0  20:21        0.14
  43                   JUNCTION     0.00     0.00   420.73     0  00:00        0.00
  44                   JUNCTION     0.00     0.00   415.92     0  00:00        0.00
  45                   JUNCTION     0.01     0.05   411.15     0  20:21        0.05
  50                   JUNCTION     0.01     0.01   433.82     0  02:14        0.01
  51                   JUNCTION     0.01     0.01   430.11     0  20:03        0.01
  52                   JUNCTION     0.02     0.02   425.39     0  12:17        0.02
  53                   JUNCTION     0.01     0.01   423.02     0  12:06        0.01
  54                   JUNCTION     0.01     0.01   403.99     0  23:48        0.01
  6                    JUNCTION     0.09     0.43   435.69     0  23:09        0.43
  60                   JUNCTION     0.00     0.00   413.50     0  00:00        0.00
  61                   JUNCTION     0.00     0.00   410.94     0  00:00        0.00
  62                   JUNCTION     0.00     0.00   407.02     0  00:00        0.00
  63                   JUNCTION     0.00     0.00   403.24     0  00:00        0.00
  70                   JUNCTION     0.00     0.00   437.79     0  02:13        0.00
  71                   JUNCTION     0.05     0.05   436.69     0  19:14        0.05
  72                   JUNCTION     0.92     0.96   436.69     0  23:09        0.96
  73                   JUNCTION     0.41     0.42   436.62     0  04:11        0.42
  8                    JUNCTION     0.11     0.37   471.36     0  13:20        0.37
  80                   JUNCTION     0.01     0.01   443.09     0  09:14        0.01
  81                   JUNCTION     0.01     0.01   431.97     0  00:56        0.01
  83                   JUNCTION     0.01     0.01   445.73     0  03:47        0.01
  84                   JUNCTION     0.02     0.02   441.54     0  16:54        0.02
  86                   JUNCTION     0.00     0.00   442.08     0  00:00        0.00
  87                   JUNCTION     0.00     0.00   435.54     0  00:00        0.00
  9                    JUNCTION     0.11     0.35   469.48     0  13:21        0.35
  PS-1                 JUNCTION     0.00     0.00   433.50     0  00:00        0.00
  PS-2                 JUNCTION     0.00     0.00   441.50     0  00:00        0.00
  PS-3                 JUNCTION     2.51   104.55   545.75     0  03:43      104.55
  PS-4                 JUNCTION    12.17   104.81   505.25     0  05:56      104.81
  PS-5                 JUNCTION     7.29   104.50   508.25     0  04:10      104.50
  PS-6                 JUNCTION     0.64   105.12   502.25     0  09:14      105.12
  12                   OUTFALL      0.12     0.37   467.10     0  13:21        0.37
  23                   STORAGE      1.28     2.00   393.48     0  13:48        2.00
  41                   STORAGE      1.12     1.50   401.35     0  05:54        1.50
  5                    STORAGE      1.92     3.00   391.76     0  08:05        3.00
  7                    STORAGE      1.88     3.06   433.73     0  14:07        3.03
  82                   STORAGE      0.90     1.82   426.68     0  23:55        1.82
  85                   STORAGE      0.63     1.29   429.32     0  23:55        1.29
  
  
  *******************
  Node Inflow Summary
  *******************
  
  -------------------------------------------------------------------------------------------------
                                  Maximum  Maximum                  Lateral       Total        Flow
                                  Lateral    Total  Time of Max      Inflow      Inflow     Balance
                                   Inflow   Inflow   Occurrence      Volume      Volume       Error
  Node                 Type           GPM      GPM  days hr:min    10^6 gal    10^6 gal     Percent
  -------------------------------------------------------------------------------------------------
  1                    JUNCTION      0.00    63.84     0  13:51           0     0.00649       0.055
  10                   JUNCTION      0.00   290.99     0  13:21           0      0.0721       0.080
  11                   JUNCTION      0.00   286.22     0  13:21           0       0.072       0.147
  2                    JUNCTION      0.00    57.80     0  13:51           0     0.00649       0.630
  21                   JUNCTION      0.69     0.69     0  00:00     0.00099     0.00099       0.238
  22                   JUNCTION      0.00     0.69     0  01:02           0    0.000988       0.516
  24                   JUNCTION      0.00    70.13     0  13:48           0    0.000664     -28.637
  3                    JUNCTION      0.00    30.97     0  18:29           0     0.00767       0.199
  30                   JUNCTION      1.60     1.60     0  00:00      0.0023      0.0023       0.285
  31                   JUNCTION      0.00     1.60     0  16:18           0     0.00229       0.602
  32                   JUNCTION      0.00     1.60     0  05:57           0     0.00228       0.204
  33                   JUNCTION      2.32     2.32     0  00:00     0.00333     0.00333       0.199
  34                   JUNCTION      0.00     2.32     0  05:54           0     0.00332       0.751
  35                   JUNCTION      0.00     3.92     0  11:32           0     0.00557       0.125
  4                    JUNCTION      0.00    28.53     0  18:31           0     0.00766       0.494
  40                   JUNCTION      1.28     1.28     0  00:00     0.00184     0.00184       0.125
  42                   JUNCTION      0.00    18.14     0  05:57           0     0.00112      -9.009
  43                   JUNCTION      0.00     0.00     0  00:00           0           0       0.000 gal
  44                   JUNCTION      0.00     0.00     0  00:00           0           0       0.000 gal
  45                   JUNCTION      0.00    17.60     0  20:21           0     0.00122       0.035
  50                   JUNCTION      0.56     0.56     0  00:00    0.000804    0.000804       0.296
  51                   JUNCTION      0.00     0.56     0  09:13           0    0.000801       0.214
  52                   JUNCTION      0.00     0.56     0  01:41           0    0.000799       0.581
  53                   JUNCTION      0.00     0.56     0  02:11           0    0.000795       0.348
  54                   JUNCTION      0.00     0.56     0  03:50           0    0.000792       0.128
  6                    JUNCTION      0.00   295.15     0  09:08           0      0.0235       0.240
  60                   JUNCTION      0.00     0.00     0  00:00           0           0       0.000 gal
  61                   JUNCTION      0.00     0.00     0  00:00           0           0       0.000 gal
  62                   JUNCTION      0.00     0.00     0  00:00           0           0       0.000 gal
  63                   JUNCTION      0.00     0.00     0  00:00           0           0       0.000 gal
  70                   JUNCTION      0.09     0.09     0  00:00    0.000129    0.000129       0.328
  71                   JUNCTION      0.00     4.35     0  02:13           0    0.000141      11.594
  72                   JUNCTION      2.83     2.93     0  00:21     0.00406     0.00419      10.217
  73                   JUNCTION      8.76    11.68     0  14:06      0.0126      0.0164       0.269
  8                    JUNCTION      0.00   414.79     0  03:43           0      0.0204     -71.777
  80                   JUNCTION      0.08     0.08     0  00:00    0.000115    0.000115       2.011
  81                   JUNCTION      0.16     0.16     0  00:00     0.00023     0.00023       0.385
  83                   JUNCTION      0.17     0.17     0  00:00    0.000244    0.000244       0.650
  84                   JUNCTION      0.00     0.17     0  02:10           0    0.000242       0.758
  86                   JUNCTION      0.00     0.00     0  00:00           0           0       0.000 gal
  87                   JUNCTION      0.00     0.00     0  00:00           0           0       0.000 gal
  9                    JUNCTION      0.00   344.40     0  13:20           0      0.0723       0.275
  PS-1                 JUNCTION      0.00     0.00     0  00:00           0           0       0.000 gal
  PS-2                 JUNCTION      0.00     0.00     0  00:00           0           0       0.000 gal
  PS-3                 JUNCTION      0.00   400.00     0  01:10           0      0.0232      10.627
  PS-4                 JUNCTION      0.00    22.00     0  05:54           0     0.00142       4.790
  PS-5                 JUNCTION      0.00   290.00     0  02:43           0     0.00821       7.417
  PS-6                 JUNCTION      0.00    70.00     0  09:12           0    0.000761      12.998
  12                   OUTFALL       0.00   280.02     0  13:21           0      0.0719       0.000
  23                   STORAGE       0.00     0.69     0  02:26           0    0.000983       0.002
  41                   STORAGE       0.00     1.42     0  00:05           0     0.00183       9.461
  5                    STORAGE       0.00    24.85     0  18:33           0     0.00841      -0.082
  7                    STORAGE       0.00   280.11     0  23:09           0      0.0234       0.007
  82                   STORAGE       0.00     0.24     0  09:12           0    0.000341       0.000
  85                   STORAGE       0.00     0.17     0  14:05           0    0.000241       0.000
  
  
  **********************
  Node Surcharge Summary
  **********************
  
  Surcharging occurs when water rises above the top of the highest conduit.
  ---------------------------------------------------------------------
                                               Max. Height   Min. Depth
                                   Hours       Above Crown    Below Rim
  Node                 Type      Surcharged           Feet         Feet
  ---------------------------------------------------------------------
  11                   JUNCTION        0.05          0.123        7.411
  72                   JUNCTION       21.70          0.048        6.186
  PS-3                 JUNCTION        3.48        104.050        0.000
  PS-4                 JUNCTION       17.97        104.685        0.000
  PS-5                 JUNCTION       16.04        104.167        0.000
  PS-6                 JUNCTION        0.16        104.953        0.000
  
  
  *********************
  Node Flooding Summary
  *********************
  
  Flooding refers to all water that overflows a node, whether it ponds or not.
  --------------------------------------------------------------------------
                                                             Total   Maximum
                                 Maximum   Time of Max       Flood    Ponded
                        Hours       Rate    Occurrence      Volume     Depth
  Node                 Flooded       GPM   days hr:min    10^6 gal      Feet
  --------------------------------------------------------------------------
  PS-3                    0.04    343.00      0  14:47       0.001   100.000
  PS-4                    1.02     14.73      0  05:56       0.000   100.000
  PS-5                    0.42    290.00      0  04:10       0.000   100.000
  PS-6                    0.01     49.30      0  13:48       0.000   100.000
  
  
  **********************
  Storage Volume Summary
  **********************
  
  --------------------------------------------------------------------------------------------------
                         Average     Avg  Evap Exfil       Maximum     Max    Time of Max    Maximum
                          Volume    Pcnt  Pcnt  Pcnt        Volume    Pcnt     Occurrence    Outflow
  Storage Unit          1000 ft3    Full  Loss  Loss      1000 ft3    Full    days hr:min        GPM
  --------------------------------------------------------------------------------------------------
  23                       0.032      51     0     0         0.050      80       0  13:48      70.00
  41                       0.028      56     0     0         0.038      75       0  05:54      22.00
  5                        0.048      55     0     0         0.075      86       0  08:05     290.00
  7                        0.047      54     0     0         0.076      87       0  14:07     400.00
  82                       0.023      22     0     0         0.046      44       0  23:55       0.00
  85                       0.016       9     0     0         0.032      18       0  23:55       0.00
  
  
  ***********************
  Outfall Loading Summary
  ***********************
  
  -----------------------------------------------------------
                         Flow       Avg       Max       Total
                         Freq      Flow      Flow      Volume
  Outfall Node           Pcnt       GPM       GPM    10^6 gal
  -----------------------------------------------------------
  12                    84.23     59.51    280.02       0.072
  -----------------------------------------------------------
  System                84.23     59.51    280.02       0.072
  
  
  ********************
  Link Flow Summary
  ********************
  
  -----------------------------------------------------------------------------
                                 Maximum  Time of Max   Maximum    Max/    Max/
                                  |Flow|   Occurrence   |Veloc|    Full    Full
  Link                 Type          GPM  days hr:min    ft/sec    Flow   Depth
  -----------------------------------------------------------------------------
  C1                   CONDUIT     57.80     0  13:51      2.34    0.15    0.22
  C10                  CONDUIT      1.60     0  17:40      1.48    0.00    0.04
  C11                  CONDUIT     29.61     0  13:54      1.56    0.07    0.18
  C12                  CONDUIT      2.32     0  05:54      0.83    0.01    0.07
  C13                  CONDUIT      2.32     0  14:48      0.70    0.01    0.05
  C14                  CONDUIT      3.92     0  04:11      2.03    0.00    0.04
  C15                  CONDUIT      1.42     0  00:05      1.70    0.00    0.52
  C16                  CONDUIT     18.14     0  05:57      3.29    2.91    1.00
  C17                  CONDUIT     17.60     0  20:21      0.98    0.07    0.17
  C18                  CONDUIT      0.00     0  00:00      0.00    0.00    0.00
  C19                  CONDUIT      0.00     0  00:00      0.00    0.00    0.00
  C2                   CONDUIT    286.22     0  13:21      2.80    0.57    0.77
  C20                  CONDUIT     15.87     0  20:21      2.72    0.01    0.08
  C21                  CONDUIT      0.56     0  09:13      0.84    0.00    0.03
  C22                  CONDUIT     28.53     0  18:31      1.58    0.07    0.17
  C23                  CONDUIT      0.56     0  01:41      1.05    0.00    0.02
  C24                  CONDUIT      0.56     0  02:11      0.65    0.00    0.03
  C25                  CONDUIT      0.56     0  03:50      1.15    0.00    0.02
  C26                  CONDUIT      0.56     0  17:51      0.00    0.00    0.02
  C27                  CONDUIT      0.00     0  00:00      0.00    0.00    0.00
  C28                  CONDUIT      0.00     0  00:00      0.00    0.00    0.00
  C29                  CONDUIT      0.00     0  00:00      0.00    0.00    0.00
  C3                   CONDUIT    280.02     0  13:21      2.14    0.96    0.78
  C30                  CONDUIT      0.00     0  00:00      0.00    0.00    0.00
  C31                  CONDUIT      0.09     0  01:09      0.00    0.00    0.01
  C32                  CONDUIT      4.26     0  02:13      0.21    0.01    0.54
  C33                  CONDUIT     24.29     0  18:33      0.99    0.11    0.21
  C34                  CONDUIT      2.92     0  14:06      0.03    0.01    0.53
  C35                  CONDUIT     11.75     0  04:11      1.91    0.01    0.29
  C36                  CONDUIT      0.08     0  18:14      0.00    0.00    0.02
  C37                  CONDUIT      0.16     0  00:56      0.00    0.00    0.02
  C38                  CONDUIT      0.00     0  00:00      0.00    0.00    0.00
  C39                  CONDUIT      0.17     0  02:10      0.00    0.00    0.03
  C4                   CONDUIT      0.69     0  01:02      0.77    0.00    0.03
  C40                  CONDUIT      0.17     0  14:05      0.39    0.00    0.04
  C41                  CONDUIT      0.00     0  00:00      0.00    0.00    0.00
  C42                  CONDUIT      0.00     0  00:00      0.00    0.00    0.00
  C43                  CONDUIT      0.00     0  00:00      0.00    0.00    0.00
  C44                  CONDUIT    283.47     0  23:09      7.59    1.41    1.00
  C45                  CONDUIT    280.11     0  23:09      2.85    0.74    0.60
  C46                  CONDUIT    344.40     0  13:20      3.88    0.59    0.55
  C47                  CONDUIT    290.99     0  13:21      3.54    0.53    0.52
  C48                  CONDUIT    414.79     0  03:43      5.19    0.88    0.87
  C5                   CONDUIT      0.69     0  02:26      0.40    0.01    0.05
  C6                   CONDUIT     70.13     0  13:48      7.16    8.81    1.00
  C7                   CONDUIT     59.92     0  13:51      1.74    0.17    0.27
  C8                   CONDUIT      1.60     0  16:18      0.96    0.00    0.05
  C9                   CONDUIT      1.60     0  05:57      1.12    0.00    0.04
  PUMP1                PUMP         0.00     0  00:00              0.00
  PUMP2                PUMP         0.00     0  00:00              0.00
  PUMP3                PUMP       400.00     0  01:10              1.00
  PUMP4                PUMP        22.00     0  05:54              1.00
  PUMP5                PUMP       290.00     0  02:43              1.00
  PUMP6                PUMP        70.00     0  09:12              1.00
  
  
  ***************************
  Flow Classification Summary
  ***************************
  
  -------------------------------------------------------------------------------------
                      Adjusted    ---------- Fraction of Time in Flow Class ---------- 
                       /Actual         Up    Down  Sub   Sup   Up    Down  Norm  Inlet 
  Conduit               Length    Dry  Dry   Dry   Crit  Crit  Crit  Crit  Ltd   Ctrl  
  -------------------------------------------------------------------------------------
  C1                      1.00   0.00  0.00  0.00  0.98  0.02  0.00  0.00  0.95  0.00
  C10                     1.00   0.01  0.00  0.00  0.00  0.00  0.00  0.99  0.00  0.00
  C11                     1.00   0.01  0.00  0.00  0.00  0.00  0.00  0.99  0.00  0.00
  C12                     1.00   0.00  0.00  0.00  0.00  0.00  0.00  1.00  0.00  0.00
  C13                     1.00   0.00  0.00  0.00  0.00  0.00  0.00  1.00  0.00  0.00
  C14                     1.00   0.00  0.00  0.00  0.00  0.00  0.00  1.00  0.00  0.00
  C15                     1.00   0.00  0.00  0.00  0.99  0.01  0.00  0.00  1.00  0.00
  C16                     1.00   0.25  0.70  0.00  0.01  0.00  0.05  0.00  0.62  0.00
  C17                     1.00   0.25  0.00  0.00  0.00  0.00  0.00  0.75  0.00  0.00
  C18                     1.00   1.00  0.00  0.00  0.00  0.00  0.00  0.00  0.00  0.00
  C19                     1.00   0.98  0.02  0.00  0.00  0.00  0.00  0.00  0.00  0.00
  C2                      1.00   0.16  0.00  0.00  0.83  0.01  0.00  0.00  0.84  0.00
  C20                     1.00   0.25  0.00  0.00  0.00  0.00  0.00  0.75  0.00  0.00
  C21                     1.00   0.00  0.00  0.00  0.00  0.00  0.00  1.00  0.00  0.00
  C22                     1.00   0.01  0.00  0.00  0.00  0.00  0.00  0.99  0.00  0.00
  C23                     1.00   0.00  0.00  0.00  0.00  0.00  0.00  1.00  0.00  0.00
  C24                     1.00   0.00  0.00  0.00  0.00  0.00  0.00  1.00  0.00  0.00
  C25                     1.00   0.00  0.00  0.00  0.00  0.00  0.00  1.00  0.00  0.00
  C26                     1.53   0.01  0.00  0.00  0.00  0.00  0.00  0.99  0.00  0.00
  C27                     1.00   1.00  0.00  0.00  0.00  0.00  0.00  0.00  0.00  0.00
  C28                     1.00   1.00  0.00  0.00  0.00  0.00  0.00  0.00  0.00  0.00
  C29                     1.00   1.00  0.00  0.00  0.00  0.00  0.00  0.00  0.00  0.00
  C3                      1.00   0.16  0.00  0.00  0.84  0.00  0.00  0.00  0.00  0.00
  C30                     1.00   1.00  0.00  0.00  0.00  0.00  0.00  0.00  0.00  0.00
  C31                     2.57   0.00  0.00  0.00  0.00  0.00  0.00  1.00  0.00  0.00
  C32                     1.00   0.00  0.00  0.00  0.99  0.00  0.00  0.01  0.08  0.00
  C33                     1.00   0.01  0.00  0.00  0.00  0.00  0.00  0.99  0.00  0.00
  C34                     1.00   0.00  0.09  0.00  0.00  0.00  0.91  0.00  0.00  0.00
  C35                     1.00   0.00  0.00  0.00  0.03  0.00  0.00  0.97  0.03  0.00
  C36                     1.00   0.00  0.00  0.00  0.00  0.00  0.00  1.00  0.00  0.00
  C37                     1.00   0.00  0.00  0.00  0.00  0.00  0.00  1.00  0.00  0.00
  C38                     1.00   1.00  0.00  0.00  0.00  0.00  0.00  0.00  0.00  0.00
  C39                     1.00   0.00  0.00  0.00  0.00  0.00  0.00  1.00  0.00  0.00
  C4                      1.00   0.00  0.00  0.00  0.00  0.00  0.00  1.00  0.00  0.00
  C40                     1.00   0.00  0.00  0.00  0.00  0.00  0.00  1.00  0.00  0.00
  C41                     1.00   1.00  0.00  0.00  0.00  0.00  0.00  0.00  0.00  0.00
  C42                     2.55   1.00  0.00  0.00  0.00  0.00  0.00  0.00  0.00  0.00
  C43                     1.00   1.00  0.00  0.00  0.00  0.00  0.00  0.00  0.00  0.00
  C44                     1.00   0.11  0.87  0.00  0.00  0.00  0.02  0.00  0.00  0.00
  C45                     1.00   0.00  0.00  0.00  0.00  0.00  0.00  1.00  0.00  0.00
  C46                     1.00   0.16  0.00  0.00  0.00  0.00  0.00  0.84  0.00  0.00
  C47                     1.00   0.16  0.00  0.00  0.00  0.00  0.00  0.84  0.00  0.00
  C48                     1.00   0.05  0.11  0.00  0.81  0.00  0.03  0.00  0.50  0.00
  C5                      1.00   0.00  0.00  0.00  0.00  0.00  0.00  1.00  0.00  0.00
  C6                      1.00   0.39  0.58  0.00  0.03  0.00  0.01  0.00  0.59  0.00
  C7                      1.00   0.39  0.00  0.00  0.00  0.00  0.00  0.61  0.00  0.00
  C8                      1.00   0.00  0.00  0.00  0.00  0.00  0.00  1.00  0.00  0.00
  C9                      1.00   0.01  0.00  0.00  0.00  0.00  0.00  0.99  0.00  0.00
  
  
  *************************
  Conduit Surcharge Summary
  *************************
  
  ----------------------------------------------------------------------------
                                                           Hours        Hours 
                         --------- Hours Full --------   Above Full   Capacity
  Conduit                Both Ends  Upstream  Dnstream   Normal Flow   Limited
  ----------------------------------------------------------------------------
  C15                         0.01      0.01     21.86      0.01         0.01
  C16                         1.02      1.02     17.96      1.03         0.01
  C2                          0.01      0.01      0.05      0.01         0.01
  C3                          0.01      0.01      0.82      0.01         0.01
  C32                         0.01      0.01     21.70      0.01         0.01
  C34                         0.01      0.01     21.68      0.01         0.01
  C44                         0.41      0.42     16.02      0.42         0.01
  C48                         0.01      0.01      3.46      0.01         0.01
  C6                          0.15      0.16      0.16      0.17         0.01
  
  
  ***************
  Pumping Summary
  ***************
  
  ---------------------------------------------------------------------------------------------------------
                                                  Min       Avg       Max     Total     Power    % Time Off
                        Percent   Number of      Flow      Flow      Flow    Volume     Usage    Pump Curve
  Pump                 Utilized   Start-Ups       GPM       GPM       GPM  10^6 gal     Kw-hr    Low   High
  ---------------------------------------------------------------------------------------------------------
  PUMP1                    0.00           0      0.00      0.00      0.00     0.000      0.00    0.0    0.0
  PUMP2                    0.00           0      0.00      0.00      0.00     0.000      0.00    0.0    0.0
  PUMP3                    4.10          50      0.00    394.45    400.00     0.023      4.10    0.0    1.6
  PUMP4                    4.49           9      0.00     21.95     22.00     0.001      0.44    0.0    0.0
  PUMP5                    1.99          21      0.00    287.80    290.00     0.008      2.77    0.0    0.0
  PUMP6                    0.76           4      0.00     69.57     70.00     0.001      0.18    0.0    0.0
  

  Analysis begun on:  Wed Jan 09 14:37:13 2019
  Analysis ended on:  Wed Jan 09 14:37:18 2019
  Total elapsed time: 00:00:05